
     RDKit          2D

311317  0  0  0  0  0  0  0  0999 V2000
   18.1460   -4.9180    0.0000 C   0  0  0  0  0  0  0  0  0  0  0  0
   19.6394   -4.7773    0.0000 N   0  0  0  0  0  0  0  0  0  0  0  0
   20.5080   -6.0002    0.0000 C   0  0  0  0  0  0  0  0  0  0  0  0
   19.8832   -7.3639    0.0000 C   0  0  0  0  0  0  0  0  0  0  0  0
   20.7517   -8.5868    0.0000 C   0  0  0  0  0  0  0  0  0  0  0  0
   22.2451   -8.4461    0.0000 C   0  0  0  0  0  0  0  0  0  0  0  0
   22.8699   -7.0824    0.0000 C   0  0  0  0  0  0  0  0  0  0  0  0
   22.0014   -5.8595    0.0000 C   0  0  0  0  0  0  0  0  0  0  0  0
   24.3599   -7.2552    0.0000 C   0  0  0  0  0  0  0  0  0  0  0  0
   24.6560   -8.7257    0.0000 O   0  0  0  0  0  0  0  0  0  0  0  0
   23.3490   -9.4617    0.0000 C   0  0  0  0  0  0  0  0  0  0  0  0
   23.1762  -10.9517    0.0000 O   0  0  0  0  0  0  0  0  0  0  0  0
   25.8237   -7.5828    0.0000 C   0  0  0  0  0  0  0  0  0  0  0  0
   26.8393   -6.4790    0.0000 C   0  0  0  0  0  0  0  0  0  0  0  0
   28.3031   -6.8066    0.0000 C   0  0  0  0  0  0  0  0  0  0  0  0
   28.7513   -8.2381    0.0000 C   0  0  0  0  0  0  0  0  0  0  0  0
   27.7357   -9.3420    0.0000 C   0  0  0  0  0  0  0  0  0  0  0  0
   26.2719   -9.0143    0.0000 C   0  0  0  0  0  0  0  0  0  0  0  0
   30.2151   -8.5657    0.0000 O   0  0  0  0  0  0  0  0  0  0  0  0
   26.3912   -5.0475    0.0000 O   0  0  0  0  0  0  0  0  0  0  0  0
   24.9274   -4.7199    0.0000 C   0  0  0  0  0  0  0  0  0  0  0  0
   23.9118   -5.8237    0.0000 C   0  0  0  0  0  0  0  0  0  0  0  0
   22.9220   -4.9810    0.0000 C   0  0  0  0  0  0  0  0  0  0  0  0
   22.6829   -4.2175    0.0000 C   0  0  0  0  0  0  0  0  0  0  0  0
   23.2246   -3.6288    0.0000 C   0  0  0  0  0  0  0  0  0  0  0  0
   24.0053   -3.8035    0.0000 C   0  0  0  0  0  0  0  0  0  0  0  0
   22.5673   -1.5293    0.0000 O   0  0  0  0  0  0  0  0  0  0  0  0
   17.5212   -6.2817    0.0000 S   0  0  0  0  0  0  0  0  0  0  0  0
   17.2774   -3.6951    0.0000 N   0  0  0  0  0  0  0  0  0  0  0  0
   15.7840   -3.8358    0.0000 C   0  0  0  0  0  0  0  0  0  0  0  0
   14.9155   -2.6129    0.0000 C   0  0  0  0  0  0  0  0  0  0  0  0
   13.4221   -2.7536    0.0000 C   0  0  0  0  0  0  0  0  0  0  0  0
   13.2753   -3.5371    0.0000 O   0  0  0  0  0  0  0  0  0  0  0  0
   12.5535   -1.5307    0.0000 N   0  0  0  0  0  0  0  0  0  0  0  0
   11.0601   -1.6714    0.0000 C   0  0  0  0  0  0  0  0  0  0  0  0
   11.4581   -3.1177    0.0000 C   0  0  0  0  0  0  0  0  0  0  0  0
   12.9095   -3.4962    0.0000 C   0  0  0  0  0  0  0  0  0  0  0  0
   13.3074   -4.9424    0.0000 C   0  0  0  0  0  0  0  0  0  0  0  0
   14.7589   -5.3210    0.0000 C   0  0  0  0  0  0  0  0  0  0  0  0
   15.1568   -6.7672    0.0000 N   0  0  0  0  0  0  0  0  0  0  0  0
    9.6087   -1.2929    0.0000 C   0  0  0  0  0  0  0  0  0  0  0  0
    8.6932   -2.4811    0.0000 O   0  0  0  0  0  0  0  0  0  0  0  0
    9.2107    0.1533    0.0000 N   0  0  0  0  0  0  0  0  0  0  0  0
    7.7593    0.5319    0.0000 C   0  0  0  0  0  0  0  0  0  0  0  0
    7.6386   -0.9633    0.0000 C   0  0  0  0  0  0  0  0  0  0  0  0
    8.7600   -1.9595    0.0000 C   0  0  0  0  0  0  0  0  0  0  0  0
    6.5248    1.3840    0.0000 C   0  0  0  0  0  0  0  0  0  0  0  0
    5.3655    0.4321    0.0000 O   0  0  0  0  0  0  0  0  0  0  0  0
    6.6455    2.8791    0.0000 N   0  0  0  0  0  0  0  0  0  0  0  0
    5.4111    3.7312    0.0000 C   0  0  0  0  0  0  0  0  0  0  0  0
    5.1958    2.2468    0.0000 C   0  0  0  0  0  0  0  0  0  0  0  0
    4.7034    0.8299    0.0000 C   0  0  0  0  0  0  0  0  0  0  0  0
    3.9518   -0.4683    0.0000 C   0  0  0  0  0  0  0  0  0  0  0  0
    2.9681   -1.6007    0.0000 C   0  0  0  0  0  0  0  0  0  0  0  0
    1.7879   -2.5265    0.0000 C   0  0  0  0  0  0  0  0  0  0  0  0
    0.4538   -3.2121    0.0000 C   0  0  0  0  0  0  0  0  0  0  0  0
   -0.9859   -3.6330    0.0000 C   0  0  0  0  0  0  0  0  0  0  0  0
    6.7227    4.4589    0.0000 C   0  0  0  0  0  0  0  0  0  0  0  0
    5.3416    5.2296    0.0000 C   0  0  0  0  0  0  0  0  0  0  0  0
    6.7897    5.6207    0.0000 O   0  0  0  0  0  0  0  0  0  0  0  0
    4.9897    6.6878    0.0000 N   0  0  0  0  0  0  0  0  0  0  0  0
    4.3683    8.0530    0.0000 C   0  0  0  0  0  0  0  0  0  0  0  0
    5.0783    9.3743    0.0000 C   0  0  0  0  0  0  0  0  0  0  0  0
    6.5720    9.2369    0.0000 C   0  0  0  0  0  0  0  0  0  0  0  0
    5.2936   10.8587    0.0000 C   0  0  0  0  0  0  0  0  0  0  0  0
    6.6868   11.4145    0.0000 C   0  0  0  0  0  0  0  0  0  0  0  0
    3.4997    9.2759    0.0000 C   0  0  0  0  0  0  0  0  0  0  0  0
    4.6345   10.2568    0.0000 O   0  0  0  0  0  0  0  0  0  0  0  0
    2.4154   10.3124    0.0000 N   0  0  0  0  0  0  0  0  0  0  0  0
    1.1545   11.1249    0.0000 C   0  0  0  0  0  0  0  0  0  0  0  0
    1.0375   12.6203    0.0000 C   0  0  0  0  0  0  0  0  0  0  0  0
    2.2740   13.4694    0.0000 C   0  0  0  0  0  0  0  0  0  0  0  0
    2.1570   14.9648    0.0000 C   0  0  0  0  0  0  0  0  0  0  0  0
    3.7264   13.8443    0.0000 C   0  0  0  0  0  0  0  0  0  0  0  0
   -0.2374   11.6841    0.0000 C   0  0  0  0  0  0  0  0  0  0  0  0
    0.0085   13.1638    0.0000 O   0  0  0  0  0  0  0  0  0  0  0  0
   -1.7099   11.9698    0.0000 N   0  0  0  0  0  0  0  0  0  0  0  0
   -3.2099   11.9716    0.0000 C   0  0  0  0  0  0  0  0  0  0  0  0
   -4.1169   13.1664    0.0000 C   0  0  0  0  0  0  0  0  0  0  0  0
   -3.5356   14.5492    0.0000 C   0  0  0  0  0  0  0  0  0  0  0  0
   -4.4426   15.7440    0.0000 C   0  0  0  0  0  0  0  0  0  0  0  0
   -3.8614   17.1268    0.0000 C   0  0  0  0  0  0  0  0  0  0  0  0
   -4.7683   18.3216    0.0000 N   0  0  0  0  0  0  0  0  0  0  0  0
   -4.6832   11.6896    0.0000 C   0  0  0  0  0  0  0  0  0  0  0  0
   -5.2763   13.0673    0.0000 O   0  0  0  0  0  0  0  0  0  0  0  0
   -6.0764   11.1338    0.0000 N   0  0  0  0  0  0  0  0  0  0  0  0
   -7.3393   10.3244    0.0000 C   0  0  0  0  0  0  0  0  0  0  0  0
   -8.7482   10.8392    0.0000 C   0  0  0  0  0  0  0  0  0  0  0  0
   -9.0068   12.3167    0.0000 C   0  0  0  0  0  0  0  0  0  0  0  0
  -10.4157   12.8315    0.0000 C   0  0  0  0  0  0  0  0  0  0  0  0
  -10.6744   14.3090    0.0000 C   0  0  0  0  0  0  0  0  0  0  0  0
  -12.0833   14.8238    0.0000 N   0  0  0  0  0  0  0  0  0  0  0  0
   -8.4262    9.2906    0.0000 C   0  0  0  0  0  0  0  0  0  0  0  0
   -9.6700   10.1289    0.0000 O   0  0  0  0  0  0  0  0  0  0  0  0
   -9.2977    8.0698    0.0000 N   0  0  0  0  0  0  0  0  0  0  0  0
   -9.9225    6.7061    0.0000 C   0  0  0  0  0  0  0  0  0  0  0  0
  -11.3861    6.3775    0.0000 C   0  0  0  0  0  0  0  0  0  0  0  0
  -10.2780    5.2489    0.0000 C   0  0  0  0  0  0  0  0  0  0  0  0
  -11.7776    5.2816    0.0000 O   0  0  0  0  0  0  0  0  0  0  0  0
  -10.3512    3.7507    0.0000 N   0  0  0  0  0  0  0  0  0  0  0  0
  -10.1396    2.2657    0.0000 C   0  0  0  0  0  0  0  0  0  0  0  0
  -11.1931    1.1979    0.0000 C   0  0  0  0  0  0  0  0  0  0  0  0
  -11.9795   -0.0794    0.0000 O   0  0  0  0  0  0  0  0  0  0  0  0
  -12.6445    1.5764    0.0000 C   0  0  0  0  0  0  0  0  0  0  0  0
   -9.6507    0.8476    0.0000 C   0  0  0  0  0  0  0  0  0  0  0  0
  -10.9300    0.0643    0.0000 O   0  0  0  0  0  0  0  0  0  0  0  0
   -8.9023   -0.4524    0.0000 N   0  0  0  0  0  0  0  0  0  0  0  0
   -7.9214   -1.5872    0.0000 C   0  0  0  0  0  0  0  0  0  0  0  0
   -6.7435   -2.5159    0.0000 C   0  0  0  0  0  0  0  0  0  0  0  0
   -5.4111   -3.2049    0.0000 C   0  0  0  0  0  0  0  0  0  0  0  0
   -3.9724   -3.6293    0.0000 C   0  0  0  0  0  0  0  0  0  0  0  0
   -2.4793   -3.7737    0.0000 C   0  0  0  0  0  0  0  0  0  0  0  0
   -9.3738   -1.9622    0.0000 C   0  0  0  0  0  0  0  0  0  0  0  0
   -8.2304   -3.0551    0.0000 C   0  0  0  0  0  0  0  0  0  0  0  0
   -7.3893   -4.2970    0.0000 O   0  0  0  0  0  0  0  0  0  0  0  0
   -9.6561   -3.5214    0.0000 N   0  0  0  0  0  0  0  0  0  0  0  0
   -9.9651   -4.9892    0.0000 C   0  0  0  0  0  0  0  0  0  0  0  0
   -9.7535   -6.4742    0.0000 C   0  0  0  0  0  0  0  0  0  0  0  0
  -10.9337   -7.4000    0.0000 C   0  0  0  0  0  0  0  0  0  0  0  0
  -12.3256   -6.8407    0.0000 C   0  0  0  0  0  0  0  0  0  0  0  0
  -13.5058   -7.7665    0.0000 C   0  0  0  0  0  0  0  0  0  0  0  0
  -13.2942   -9.2515    0.0000 C   0  0  0  0  0  0  0  0  0  0  0  0
  -14.4744  -10.1773    0.0000 O   0  0  0  0  0  0  0  0  0  0  0  0
  -11.9023   -9.8107    0.0000 C   0  0  0  0  0  0  0  0  0  0  0  0
  -10.7221   -8.8850    0.0000 C   0  0  0  0  0  0  0  0  0  0  0  0
  -11.3908   -5.4555    0.0000 C   0  0  0  0  0  0  0  0  0  0  0  0
  -12.3771   -4.3253    0.0000 O   0  0  0  0  0  0  0  0  0  0  0  0
  -11.6998   -6.9233    0.0000 N   0  0  0  0  0  0  0  0  0  0  0  0
  -13.1255   -7.3896    0.0000 C   0  0  0  0  0  0  0  0  0  0  0  0
  -14.6247   -7.3401    0.0000 C   0  0  0  0  0  0  0  0  0  0  0  0
  -15.1649   -5.9408    0.0000 C   0  0  0  0  0  0  0  0  0  0  0  0
  -16.0504   -7.8064    0.0000 C   0  0  0  0  0  0  0  0  0  0  0  0
  -17.1671   -6.8049    0.0000 C   0  0  0  0  0  0  0  0  0  0  0  0
  -13.4345   -8.8574    0.0000 C   0  0  0  0  0  0  0  0  0  0  0  0
  -12.5934  -10.0994    0.0000 O   0  0  0  0  0  0  0  0  0  0  0  0
  -14.8602   -9.3237    0.0000 N   0  0  0  0  0  0  0  0  0  0  0  0
  -15.1693  -10.7915    0.0000 C   0  0  0  0  0  0  0  0  0  0  0  0
  -14.9576  -12.2765    0.0000 C   0  0  0  0  0  0  0  0  0  0  0  0
  -16.1378  -13.2023    0.0000 C   0  0  0  0  0  0  0  0  0  0  0  0
  -15.9262  -14.6873    0.0000 C   0  0  0  0  0  0  0  0  0  0  0  0
  -17.5635  -13.6686    0.0000 C   0  0  0  0  0  0  0  0  0  0  0  0
  -16.5949  -11.2578    0.0000 C   0  0  0  0  0  0  0  0  0  0  0  0
  -17.7116  -10.2563    0.0000 O   0  0  0  0  0  0  0  0  0  0  0  0
  -16.9040  -12.7256    0.0000 N   0  0  0  0  0  0  0  0  0  0  0  0
  -18.3296  -13.1919    0.0000 C   0  0  0  0  0  0  0  0  0  0  0  0
  -19.8288  -13.1425    0.0000 C   0  0  0  0  0  0  0  0  0  0  0  0
  -20.5356  -11.8194    0.0000 O   0  0  0  0  0  0  0  0  0  0  0  0
  -18.6387  -14.6598    0.0000 C   0  0  0  0  0  0  0  0  0  0  0  0
  -19.9969  -15.2964    0.0000 O   0  0  0  0  0  0  0  0  0  0  0  0
  -17.6524  -15.7899    0.0000 O   0  0  0  0  0  0  0  0  0  0  0  0
   20.0933   -3.3476    0.0000 H   0  0  0  0  0  0  0  0  0  0  0  0
   18.3898   -7.5046    0.0000 H   0  0  0  0  0  0  0  0  0  0  0  0
   20.1269   -9.9505    0.0000 H   0  0  0  0  0  0  0  0  0  0  0  0
   22.2776   -4.3851    0.0000 H   0  0  0  0  0  0  0  0  0  0  0  0
   29.3188   -5.7027    0.0000 H   0  0  0  0  0  0  0  0  0  0  0  0
   28.1838  -10.7734    0.0000 H   0  0  0  0  0  0  0  0  0  0  0  0
   25.2563  -10.1182    0.0000 H   0  0  0  0  0  0  0  0  0  0  0  0
   30.6632   -9.9972    0.0000 H   0  0  0  0  0  0  0  0  0  0  0  0
   21.4324   -6.6000    0.0000 H   0  0  0  0  0  0  0  0  0  0  0  0
   20.5869   -3.5610    0.0000 H   0  0  0  0  0  0  0  0  0  0  0  0
   25.4949   -2.1845    0.0000 H   0  0  0  0  0  0  0  0  0  0  0  0
   23.5829   -0.4254    0.0000 H   0  0  0  0  0  0  0  0  0  0  0  0
   17.9022   -2.3314    0.0000 H   0  0  0  0  0  0  0  0  0  0  0  0
   16.3553   -5.2228    0.0000 H   0  0  0  0  0  0  0  0  0  0  0  0
   14.3606   -4.3088    0.0000 H   0  0  0  0  0  0  0  0  0  0  0  0
   16.2707   -1.9699    0.0000 H   0  0  0  0  0  0  0  0  0  0  0  0
   14.5175   -1.1666    0.0000 H   0  0  0  0  0  0  0  0  0  0  0  0
   13.1783   -0.1670    0.0000 H   0  0  0  0  0  0  0  0  0  0  0  0
   11.1808   -0.1763    0.0000 H   0  0  0  0  0  0  0  0  0  0  0  0
   11.1560   -4.5869    0.0000 H   0  0  0  0  0  0  0  0  0  0  0  0
    9.9647   -3.2584    0.0000 H   0  0  0  0  0  0  0  0  0  0  0  0
   14.3746   -3.1745    0.0000 H   0  0  0  0  0  0  0  0  0  0  0  0
   13.3884   -2.0747    0.0000 H   0  0  0  0  0  0  0  0  0  0  0  0
   13.0054   -6.4117    0.0000 H   0  0  0  0  0  0  0  0  0  0  0  0
   11.8424   -5.2642    0.0000 H   0  0  0  0  0  0  0  0  0  0  0  0
   16.2583   -5.3633    0.0000 H   0  0  0  0  0  0  0  0  0  0  0  0
   14.8796   -3.8258    0.0000 H   0  0  0  0  0  0  0  0  0  0  0  0
   16.6083   -7.1457    0.0000 H   0  0  0  0  0  0  0  0  0  0  0  0
   15.0361   -8.2623    0.0000 H   0  0  0  0  0  0  0  0  0  0  0  0
   13.6917   -7.0889    0.0000 H   0  0  0  0  0  0  0  0  0  0  0  0
   10.2643    1.2211    0.0000 H   0  0  0  0  0  0  0  0  0  0  0  0
    8.3841    1.8955    0.0000 H   0  0  0  0  0  0  0  0  0  0  0  0
    7.0138   -2.3270    0.0000 H   0  0  0  0  0  0  0  0  0  0  0  0
    6.1871   -0.5848    0.0000 H   0  0  0  0  0  0  0  0  0  0  0  0
    8.7523   -3.3105    0.0000 H   0  0  0  0  0  0  0  0  0  0  0  0
   10.3245   -2.1939    0.0000 H   0  0  0  0  0  0  0  0  0  0  0  0
    9.8408   -0.6751    0.0000 H   0  0  0  0  0  0  0  0  0  0  0  0
    8.0690    3.3521    0.0000 H   0  0  0  0  0  0  0  0  0  0  0  0
    6.6919    2.3542    0.0000 H   0  0  0  0  0  0  0  0  0  0  0  0
    6.1084    1.0563    0.0000 H   0  0  0  0  0  0  0  0  0  0  0  0
    6.1601    0.4720    0.0000 H   0  0  0  0  0  0  0  0  0  0  0  0
    5.5328   -0.4200    0.0000 H   0  0  0  0  0  0  0  0  0  0  0  0
    5.4487   -0.5652    0.0000 H   0  0  0  0  0  0  0  0  0  0  0  0
    4.6941   -1.7717    0.0000 H   0  0  0  0  0  0  0  0  0  0  0  0
    4.3626   -2.1533    0.0000 H   0  0  0  0  0  0  0  0  0  0  0  0
    3.4503   -3.0211    0.0000 H   0  0  0  0  0  0  0  0  0  0  0  0
    3.0526   -3.3330    0.0000 H   0  0  0  0  0  0  0  0  0  0  0  0
    1.9925   -4.0124    0.0000 H   0  0  0  0  0  0  0  0  0  0  0  0
    1.5430   -4.2435    0.0000 H   0  0  0  0  0  0  0  0  0  0  0  0
    0.1915   -4.6890    0.0000 H   0  0  0  0  0  0  0  0  0  0  0  0
   -0.7039   -5.1062    0.0000 H   0  0  0  0  0  0  0  0  0  0  0  0
    8.0933    3.8493    0.0000 H   0  0  0  0  0  0  0  0  0  0  0  0
    7.8371    5.4630    0.0000 H   0  0  0  0  0  0  0  0  0  0  0  0
    6.0884    5.8182    0.0000 H   0  0  0  0  0  0  0  0  0  0  0  0
    6.4568    7.0001    0.0000 H   0  0  0  0  0  0  0  0  0  0  0  0
    5.8502    7.8212    0.0000 H   0  0  0  0  0  0  0  0  0  0  0  0
    3.8098   10.1748    0.0000 H   0  0  0  0  0  0  0  0  0  0  0  0
    7.4657   10.6429    0.0000 H   0  0  0  0  0  0  0  0  0  0  0  0
    8.0021    8.9502    0.0000 H   0  0  0  0  0  0  0  0  0  0  0  0
    6.7279    7.9276    0.0000 H   0  0  0  0  0  0  0  0  0  0  0  0
    4.9882   12.3273    0.0000 H   0  0  0  0  0  0  0  0  0  0  0  0
    3.7999   10.9961    0.0000 H   0  0  0  0  0  0  0  0  0  0  0  0
    6.9022   12.8990    0.0000 H   0  0  0  0  0  0  0  0  0  0  0  0
    8.1862   11.4603    0.0000 H   0  0  0  0  0  0  0  0  0  0  0  0
    7.3385   10.0635    0.0000 H   0  0  0  0  0  0  0  0  0  0  0  0
    3.3441   11.4903    0.0000 H   0  0  0  0  0  0  0  0  0  0  0  0
    2.5265   11.7311    0.0000 H   0  0  0  0  0  0  0  0  0  0  0  0
    0.4160   13.9855    0.0000 H   0  0  0  0  0  0  0  0  0  0  0  0
   -0.4625   12.6080    0.0000 H   0  0  0  0  0  0  0  0  0  0  0  0
    3.2073   12.2951    0.0000 H   0  0  0  0  0  0  0  0  0  0  0  0
    3.2808   15.9583    0.0000 H   0  0  0  0  0  0  0  0  0  0  0  0
    1.5356   16.3300    0.0000 H   0  0  0  0  0  0  0  0  0  0  0  0
    0.6697   14.7697    0.0000 H   0  0  0  0  0  0  0  0  0  0  0  0
    4.3011   15.2299    0.0000 H   0  0  0  0  0  0  0  0  0  0  0  0
    5.2194   13.6999    0.0000 H   0  0  0  0  0  0  0  0  0  0  0  0
    3.8434   12.3489    0.0000 H   0  0  0  0  0  0  0  0  0  0  0  0
   -1.3846   13.4341    0.0000 H   0  0  0  0  0  0  0  0  0  0  0  0
   -2.3834   13.2234    0.0000 H   0  0  0  0  0  0  0  0  0  0  0  0
   -5.3777   13.9789    0.0000 H   0  0  0  0  0  0  0  0  0  0  0  0
   -5.3720   12.3451    0.0000 H   0  0  0  0  0  0  0  0  0  0  0  0
   -2.3899   15.5174    0.0000 H   0  0  0  0  0  0  0  0  0  0  0  0
   -2.1156   14.0659    0.0000 H   0  0  0  0  0  0  0  0  0  0  0  0
   -5.7931   16.3967    0.0000 H   0  0  0  0  0  0  0  0  0  0  0  0
   -5.5883   14.7758    0.0000 H   0  0  0  0  0  0  0  0  0  0  0  0
   -2.8422   18.2274    0.0000 H   0  0  0  0  0  0  0  0  0  0  0  0
   -2.5108   16.4740    0.0000 H   0  0  0  0  0  0  0  0  0  0  0  0
   -4.1871   19.7044    0.0000 H   0  0  0  0  0  0  0  0  0  0  0  0
   -6.0292   19.1341    0.0000 H   0  0  0  0  0  0  0  0  0  0  0  0
   -5.9140   17.3534    0.0000 H   0  0  0  0  0  0  0  0  0  0  0  0
   -6.5944   12.5415    0.0000 H   0  0  0  0  0  0  0  0  0  0  0  0
   -7.3207   11.8243    0.0000 H   0  0  0  0  0  0  0  0  0  0  0  0
  -10.2482   10.8410    0.0000 H   0  0  0  0  0  0  0  0  0  0  0  0
   -9.3600    9.4696    0.0000 H   0  0  0  0  0  0  0  0  0  0  0  0
   -8.5665   13.7506    0.0000 H   0  0  0  0  0  0  0  0  0  0  0  0
   -7.5510   12.6779    0.0000 H   0  0  0  0  0  0  0  0  0  0  0  0
  -11.9048   12.6505    0.0000 H   0  0  0  0  0  0  0  0  0  0  0  0
  -10.8561   11.3976    0.0000 H   0  0  0  0  0  0  0  0  0  0  0  0
  -10.4121   15.7859    0.0000 H   0  0  0  0  0  0  0  0  0  0  0  0
   -9.1853   14.4900    0.0000 H   0  0  0  0  0  0  0  0  0  0  0  0
  -12.3419   16.3013    0.0000 H   0  0  0  0  0  0  0  0  0  0  0  0
  -13.5833   14.8256    0.0000 H   0  0  0  0  0  0  0  0  0  0  0  0
  -12.5237   13.3899    0.0000 H   0  0  0  0  0  0  0  0  0  0  0  0
  -10.5959    8.8214    0.0000 H   0  0  0  0  0  0  0  0  0  0  0  0
  -10.8669    7.8715    0.0000 H   0  0  0  0  0  0  0  0  0  0  0  0
  -12.4025    7.4806    0.0000 H   0  0  0  0  0  0  0  0  0  0  0  0
  -12.7382    5.7281    0.0000 H   0  0  0  0  0  0  0  0  0  0  0  0
  -11.1604    4.8946    0.0000 H   0  0  0  0  0  0  0  0  0  0  0  0
  -11.8469    3.8643    0.0000 H   0  0  0  0  0  0  0  0  0  0  0  0
  -11.4962    2.9056    0.0000 H   0  0  0  0  0  0  0  0  0  0  0  0
  -10.2015    0.0724    0.0000 H   0  0  0  0  0  0  0  0  0  0  0  0
  -13.2737   -0.4672    0.0000 H   0  0  0  0  0  0  0  0  0  0  0  0
  -13.8204    0.6451    0.0000 H   0  0  0  0  0  0  0  0  0  0  0  0
  -13.8790    2.4285    0.0000 H   0  0  0  0  0  0  0  0  0  0  0  0
  -12.3683    3.0508    0.0000 H   0  0  0  0  0  0  0  0  0  0  0  0
  -10.2220   -1.1654    0.0000 H   0  0  0  0  0  0  0  0  0  0  0  0
   -6.7691   -4.0157    0.0000 H   0  0  0  0  0  0  0  0  0  0  0  0
   -7.9028   -3.4678    0.0000 H   0  0  0  0  0  0  0  0  0  0  0  0
   -5.3345   -4.7030    0.0000 H   0  0  0  0  0  0  0  0  0  0  0  0
   -6.3693   -4.3589    0.0000 H   0  0  0  0  0  0  0  0  0  0  0  0
   -3.4388   -5.0312    0.0000 H   0  0  0  0  0  0  0  0  0  0  0  0
   -4.8497   -4.8459    0.0000 H   0  0  0  0  0  0  0  0  0  0  0  0
   -2.4812   -5.2737    0.0000 H   0  0  0  0  0  0  0  0  0  0  0  0
  -10.1131   -3.2673    0.0000 H   0  0  0  0  0  0  0  0  0  0  0  0
  -10.8668   -1.8177    0.0000 H   0  0  0  0  0  0  0  0  0  0  0  0
   -9.8492   -0.5395    0.0000 H   0  0  0  0  0  0  0  0  0  0  0  0
  -10.8865   -2.6634    0.0000 H   0  0  0  0  0  0  0  0  0  0  0  0
   -8.4660   -5.0386    0.0000 H   0  0  0  0  0  0  0  0  0  0  0  0
   -9.0467   -7.7972    0.0000 H   0  0  0  0  0  0  0  0  0  0  0  0
   -8.3278   -6.0079    0.0000 H   0  0  0  0  0  0  0  0  0  0  0  0
  -12.7167   -5.3926    0.0000 H   0  0  0  0  0  0  0  0  0  0  0  0
  -14.9916   -7.5607    0.0000 H   0  0  0  0  0  0  0  0  0  0  0  0
  -14.0833  -11.6254    0.0000 H   0  0  0  0  0  0  0  0  0  0  0  0
  -11.6907  -11.2957    0.0000 H   0  0  0  0  0  0  0  0  0  0  0  0
   -9.3302   -9.4442    0.0000 H   0  0  0  0  0  0  0  0  0  0  0  0
  -10.8587   -8.1653    0.0000 H   0  0  0  0  0  0  0  0  0  0  0  0
  -13.1546   -5.8899    0.0000 H   0  0  0  0  0  0  0  0  0  0  0  0
  -14.7787   -8.8322    0.0000 H   0  0  0  0  0  0  0  0  0  0  0  0
  -16.8215   -5.7644    0.0000 H   0  0  0  0  0  0  0  0  0  0  0  0
  -15.5431   -4.5321    0.0000 H   0  0  0  0  0  0  0  0  0  0  0  0
  -13.9733   -5.3805    0.0000 H   0  0  0  0  0  0  0  0  0  0  0  0
  -17.2306   -8.7322    0.0000 H   0  0  0  0  0  0  0  0  0  0  0  0
  -15.6848   -9.2612    0.0000 H   0  0  0  0  0  0  0  0  0  0  0  0
  -18.5927   -7.2712    0.0000 H   0  0  0  0  0  0  0  0  0  0  0  0
  -17.8738   -5.4819    0.0000 H   0  0  0  0  0  0  0  0  0  0  0  0
  -16.2459   -5.6211    0.0000 H   0  0  0  0  0  0  0  0  0  0  0  0
  -16.1861   -8.6221    0.0000 H   0  0  0  0  0  0  0  0  0  0  0  0
  -13.6701  -10.8410    0.0000 H   0  0  0  0  0  0  0  0  0  0  0  0
  -14.0948  -13.5036    0.0000 H   0  0  0  0  0  0  0  0  0  0  0  0
  -13.4857  -11.9875    0.0000 H   0  0  0  0  0  0  0  0  0  0  0  0
  -17.3831  -12.3661    0.0000 H   0  0  0  0  0  0  0  0  0  0  0  0
  -16.8473  -15.8712    0.0000 H   0  0  0  0  0  0  0  0  0  0  0  0
  -15.2194  -16.0104    0.0000 H   0  0  0  0  0  0  0  0  0  0  0  0
  -14.4543  -14.3983    0.0000 H   0  0  0  0  0  0  0  0  0  0  0  0
  -18.8893  -12.9670    0.0000 H   0  0  0  0  0  0  0  0  0  0  0  0
  -18.3335  -14.9559    0.0000 H   0  0  0  0  0  0  0  0  0  0  0  0
  -17.0233  -15.0679    0.0000 H   0  0  0  0  0  0  0  0  0  0  0  0
  -16.0628  -13.9676    0.0000 H   0  0  0  0  0  0  0  0  0  0  0  0
  -18.5413  -11.7069    0.0000 H   0  0  0  0  0  0  0  0  0  0  0  0
  -21.2545  -13.6088    0.0000 H   0  0  0  0  0  0  0  0  0  0  0  0
  -19.9828  -14.6346    0.0000 H   0  0  0  0  0  0  0  0  0  0  0  0
  -22.0348  -11.7700    0.0000 H   0  0  0  0  0  0  0  0  0  0  0  0
  1  2  1  0
  2  3  1  0
  3  4  2  0
  4  5  1  0
  5  6  2  0
  6  7  1  0
  7  8  2  0
  7  9  1  0
  9 10  1  0
 10 11  1  0
 11 12  2  0
  9 13  1  0
 13 14  1  0
 14 15  2  0
 15 16  1  0
 16 17  2  0
 17 18  1  0
 16 19  1  0
 14 20  1  0
 20 21  1  0
 21 22  2  0
 22 23  1  0
 23 24  2  0
 24 25  1  0
 25 26  2  0
 25 27  1  0
  1 28  2  0
  1 29  1  0
 29 30  1  0
 30 31  1  0
 31 32  1  0
 32 33  2  0
 32 34  1  0
 34 35  1  0
 35 36  1  0
 36 37  1  0
 37 38  1  0
 38 39  1  0
 39 40  1  0
 35 41  1  0
 41 42  2  0
 41 43  1  0
 43 44  1  0
 44 45  1  0
 45 46  1  0
 44 47  1  0
 47 48  2  0
 47 49  1  0
 50 49  1  6
 50 51  1  0
 51 52  1  0
 52 53  1  0
 53 54  1  0
 54 55  1  0
 55 56  1  0
 56 57  1  0
 50 58  1  0
 50 59  1  0
 59 60  2  0
 59 61  1  0
 61 62  1  0
 62 63  1  0
 63 64  1  0
 63 65  1  0
 65 66  1  0
 62 67  1  0
 67 68  2  0
 67 69  1  0
 69 70  1  0
 70 71  1  0
 71 72  1  0
 72 73  1  0
 72 74  1  0
 70 75  1  0
 75 76  2  0
 75 77  1  0
 77 78  1  0
 78 79  1  0
 79 80  1  0
 80 81  1  0
 81 82  1  0
 82 83  1  0
 78 84  1  0
 84 85  2  0
 84 86  1  0
 86 87  1  0
 87 88  1  0
 88 89  1  0
 89 90  1  0
 90 91  1  0
 91 92  1  0
 87 93  1  0
 93 94  2  0
 93 95  1  0
 95 96  1  0
 96 97  1  0
 96 98  1  0
 98 99  2  0
 98100  1  0
100101  1  0
101102  1  0
102103  1  0
102104  1  0
101105  1  0
105106  2  0
105107  1  0
107108  1  0
108109  1  0
109110  1  0
110111  1  0
111112  1  0
108113  1  0
108114  1  1
114115  2  0
114116  1  0
116117  1  0
117118  1  0
118119  1  0
119120  2  0
120121  1  0
121122  2  0
122123  1  0
122124  1  0
124125  2  0
117126  1  0
126127  2  0
126128  1  0
128129  1  0
129130  1  0
130131  1  0
130132  1  0
132133  1  0
129134  1  0
134135  2  0
134136  1  0
136137  1  0
137138  1  0
138139  1  0
139140  1  0
139141  1  0
137142  1  0
142143  2  0
142144  1  0
144145  1  0
145146  1  0
146147  1  0
145148  1  0
148149  2  0
148150  1  0
  8  3  1  0
125119  1  0
 11  6  1  0
 18 13  2  0
 57112  2  0
 22  9  1  0
 26 21  1  0
  2151  1  0
  4152  1  0
  5153  1  0
  8154  1  0
 15155  1  0
 17156  1  0
 18157  1  0
 19158  1  0
 23159  1  0
 24160  1  0
 26161  1  0
 27162  1  0
 29163  1  0
 30164  1  0
 30165  1  0
 31166  1  0
 31167  1  0
 34168  1  0
 35169  1  1
 36170  1  0
 36171  1  0
 37172  1  0
 37173  1  0
 38174  1  0
 38175  1  0
 39176  1  0
 39177  1  0
 40178  1  0
 40179  1  0
 40180  1  0
 43181  1  0
 44182  1  1
 45183  1  0
 45184  1  0
 46185  1  0
 46186  1  0
 46187  1  0
 49188  1  0
 51189  1  0
 51190  1  0
 52191  1  0
 52192  1  0
 53193  1  0
 53194  1  0
 54195  1  0
 54196  1  0
 55197  1  0
 55198  1  0
 56199  1  0
 56200  1  0
 57201  1  0
 58202  1  0
 58203  1  0
 58204  1  0
 61205  1  0
 62206  1  6
 63207  1  1
 64208  1  0
 64209  1  0
 64210  1  0
 65211  1  0
 65212  1  0
 66213  1  0
 66214  1  0
 66215  1  0
 69216  1  0
 70217  1  6
 71218  1  0
 71219  1  0
 72220  1  0
 73221  1  0
 73222  1  0
 73223  1  0
 74224  1  0
 74225  1  0
 74226  1  0
 77227  1  0
 78228  1  6
 79229  1  0
 79230  1  0
 80231  1  0
 80232  1  0
 81233  1  0
 81234  1  0
 82235  1  0
 82236  1  0
 83237  1  0
 83238  1  0
 83239  1  0
 86240  1  0
 87241  1  6
 88242  1  0
 88243  1  0
 89244  1  0
 89245  1  0
 90246  1  0
 90247  1  0
 91248  1  0
 91249  1  0
 92250  1  0
 92251  1  0
 92252  1  0
 95253  1  0
 96254  1  6
 97255  1  0
 97256  1  0
 97257  1  0
100258  1  0
101259  1  6
102260  1  1
103261  1  0
104262  1  0
104263  1  0
104264  1  0
107265  1  0
109266  1  0
109267  1  0
110268  1  0
110269  1  0
111270  1  0
111271  1  0
112272  1  0
113273  1  0
113274  1  0
113275  1  0
116276  1  0
117277  1  1
118278  1  0
118279  1  0
120280  1  0
121281  1  0
123282  1  0
124283  1  0
125284  1  0
128285  1  0
129286  1  6
130287  1  1
131288  1  0
131289  1  0
131290  1  0
132291  1  0
132292  1  0
133293  1  0
133294  1  0
133295  1  0
136296  1  0
137297  1  1
138298  1  0
138299  1  0
139300  1  0
140301  1  0
140302  1  0
140303  1  0
141304  1  0
141305  1  0
141306  1  0
144307  1  0
145308  1  6
146309  1  0
146310  1  0
147311  1  0
M  CHG  4  40   1  83   1  92   1 150  -1
M  END
