
     RDKit          2D

299305  0  0  0  0  0  0  0  0999 V2000
   20.1828   -2.8598    0.0000 C   0  0  0  0  0  0  0  0  0  0  0  0
   21.4807   -2.1078    0.0000 N   0  0  0  0  0  0  0  0  0  0  0  0
   22.7809   -2.8558    0.0000 C   0  0  0  0  0  0  0  0  0  0  0  0
   22.7832   -4.3558    0.0000 C   0  0  0  0  0  0  0  0  0  0  0  0
   24.0834   -5.1039    0.0000 C   0  0  0  0  0  0  0  0  0  0  0  0
   25.3813   -4.3519    0.0000 C   0  0  0  0  0  0  0  0  0  0  0  0
   25.3790   -2.8519    0.0000 C   0  0  0  0  0  0  0  0  0  0  0  0
   24.0788   -2.1039    0.0000 C   0  0  0  0  0  0  0  0  0  0  0  0
   26.8049   -2.3862    0.0000 C   0  0  0  0  0  0  0  0  0  0  0  0
   27.6884   -3.5984    0.0000 O   0  0  0  0  0  0  0  0  0  0  0  0
   26.8086   -4.8133    0.0000 C   0  0  0  0  0  0  0  0  0  0  0  0
   27.2742   -6.2391    0.0000 O   0  0  0  0  0  0  0  0  0  0  0  0
   28.2716   -2.0721    0.0000 C   0  0  0  0  0  0  0  0  0  0  0  0
   28.7330   -0.6448    0.0000 C   0  0  0  0  0  0  0  0  0  0  0  0
   30.1997   -0.3307    0.0000 C   0  0  0  0  0  0  0  0  0  0  0  0
   31.2051   -1.4439    0.0000 C   0  0  0  0  0  0  0  0  0  0  0  0
   30.7438   -2.8712    0.0000 C   0  0  0  0  0  0  0  0  0  0  0  0
   29.2770   -3.1853    0.0000 C   0  0  0  0  0  0  0  0  0  0  0  0
   32.6719   -1.1298    0.0000 O   0  0  0  0  0  0  0  0  0  0  0  0
   27.7276    0.4684    0.0000 O   0  0  0  0  0  0  0  0  0  0  0  0
   26.2609    0.1543    0.0000 C   0  0  0  0  0  0  0  0  0  0  0  0
   25.7995   -1.2730    0.0000 C   0  0  0  0  0  0  0  0  0  0  0  0
   24.5480   -0.9210    0.0000 C   0  0  0  0  0  0  0  0  0  0  0  0
   24.0118   -0.3273    0.0000 C   0  0  0  0  0  0  0  0  0  0  0  0
   24.2579    0.4339    0.0000 C   0  0  0  0  0  0  0  0  0  0  0  0
   25.0402    0.6014    0.0000 C   0  0  0  0  0  0  0  0  0  0  0  0
   22.7833    2.0666    0.0000 O   0  0  0  0  0  0  0  0  0  0  0  0
   20.1851   -4.3598    0.0000 S   0  0  0  0  0  0  0  0  0  0  0  0
   18.8827   -2.1117    0.0000 N   0  0  0  0  0  0  0  0  0  0  0  0
   17.5848   -2.8637    0.0000 C   0  0  0  0  0  0  0  0  0  0  0  0
   16.2846   -2.1157    0.0000 C   0  0  0  0  0  0  0  0  0  0  0  0
   14.9867   -2.8676    0.0000 C   0  0  0  0  0  0  0  0  0  0  0  0
   15.1808   -3.6408    0.0000 O   0  0  0  0  0  0  0  0  0  0  0  0
   13.6865   -2.1196    0.0000 N   0  0  0  0  0  0  0  0  0  0  0  0
   12.3886   -2.8716    0.0000 C   0  0  0  0  0  0  0  0  0  0  0  0
   13.3546   -4.0192    0.0000 C   0  0  0  0  0  0  0  0  0  0  0  0
   14.8314   -3.7565    0.0000 C   0  0  0  0  0  0  0  0  0  0  0  0
   15.7973   -4.9041    0.0000 N   0  0  0  0  0  0  0  0  0  0  0  0
   15.6683   -2.5117    0.0000 O   0  0  0  0  0  0  0  0  0  0  0  0
   10.9118   -3.1343    0.0000 C   0  0  0  0  0  0  0  0  0  0  0  0
   10.7574   -4.6263    0.0000 O   0  0  0  0  0  0  0  0  0  0  0  0
    9.9459   -1.9867    0.0000 N   0  0  0  0  0  0  0  0  0  0  0  0
    8.4691   -2.2494    0.0000 C   0  0  0  0  0  0  0  0  0  0  0  0
    8.9842   -3.6582    0.0000 C   0  0  0  0  0  0  0  0  0  0  0  0
   10.4618   -3.9164    0.0000 C   0  0  0  0  0  0  0  0  0  0  0  0
   10.9770   -5.3252    0.0000 C   0  0  0  0  0  0  0  0  0  0  0  0
   12.4121   -5.7616    0.0000 O   0  0  0  0  0  0  0  0  0  0  0  0
   10.0146   -6.4757    0.0000 O   0  0  0  0  0  0  0  0  0  0  0  0
    6.9915   -1.9912    0.0000 C   0  0  0  0  0  0  0  0  0  0  0  0
    6.3360   -3.3404    0.0000 O   0  0  0  0  0  0  0  0  0  0  0  0
    6.4763   -0.5824    0.0000 N   0  0  0  0  0  0  0  0  0  0  0  0
    4.9987   -0.3242    0.0000 C   0  0  0  0  0  0  0  0  0  0  0  0
    5.0010   -1.8242    0.0000 C   0  0  0  0  0  0  0  0  0  0  0  0
    6.3011   -2.5722    0.0000 C   0  0  0  0  0  0  0  0  0  0  0  0
    6.3034   -4.0722    0.0000 C   0  0  0  0  0  0  0  0  0  0  0  0
    7.7788   -2.8304    0.0000 C   0  0  0  0  0  0  0  0  0  0  0  0
    3.6985    0.4238    0.0000 C   0  0  0  0  0  0  0  0  0  0  0  0
    2.6212   -0.6198    0.0000 O   0  0  0  0  0  0  0  0  0  0  0  0
    3.6963    1.9238    0.0000 N   0  0  0  0  0  0  0  0  0  0  0  0
    2.3961    2.6719    0.0000 C   0  0  0  0  0  0  0  0  0  0  0  0
    2.3032    1.1747    0.0000 C   0  0  0  0  0  0  0  0  0  0  0  0
    1.9287   -0.2777    0.0000 C   0  0  0  0  0  0  0  0  0  0  0  0
    1.2861   -1.6331    0.0000 C   0  0  0  0  0  0  0  0  0  0  0  0
    0.3985   -2.8424    0.0000 C   0  0  0  0  0  0  0  0  0  0  0  0
   -0.7018   -3.8618    0.0000 C   0  0  0  0  0  0  0  0  0  0  0  0
   -1.9752   -4.6546    0.0000 C   0  0  0  0  0  0  0  0  0  0  0  0
   -3.3756   -5.1920    0.0000 C   0  0  0  0  0  0  0  0  0  0  0  0
    3.6437    3.5046    0.0000 C   0  0  0  0  0  0  0  0  0  0  0  0
    2.2039    4.1595    0.0000 C   0  0  0  0  0  0  0  0  0  0  0  0
    3.6151    4.6680    0.0000 O   0  0  0  0  0  0  0  0  0  0  0  0
    1.7337    5.5839    0.0000 N   0  0  0  0  0  0  0  0  0  0  0  0
    1.0024    6.8936    0.0000 C   0  0  0  0  0  0  0  0  0  0  0  0
    1.6018    8.2686    0.0000 C   0  0  0  0  0  0  0  0  0  0  0  0
    3.0923    8.4372    0.0000 C   0  0  0  0  0  0  0  0  0  0  0  0
    3.6916    9.8122    0.0000 C   0  0  0  0  0  0  0  0  0  0  0  0
    5.1821    9.9808    0.0000 N   0  0  0  0  0  0  0  0  0  0  0  0
    5.7814   11.3558    0.0000 C   0  0  0  0  0  0  0  0  0  0  0  0
    7.2719   11.5243    0.0000 N   0  0  0  0  0  0  0  0  0  0  0  0
    4.8902   12.5624    0.0000 N   0  0  0  0  0  0  0  0  0  0  0  0
    0.0365    8.0412    0.0000 C   0  0  0  0  0  0  0  0  0  0  0  0
    0.9488    9.2319    0.0000 O   0  0  0  0  0  0  0  0  0  0  0  0
   -1.1291    8.9852    0.0000 N   0  0  0  0  0  0  0  0  0  0  0  0
   -2.4524    9.6916    0.0000 C   0  0  0  0  0  0  0  0  0  0  0  0
   -2.6916   11.1724    0.0000 C   0  0  0  0  0  0  0  0  0  0  0  0
   -1.5289   12.1200    0.0000 O   0  0  0  0  0  0  0  0  0  0  0  0
   -3.8854   10.1349    0.0000 C   0  0  0  0  0  0  0  0  0  0  0  0
   -3.7617   11.6297    0.0000 O   0  0  0  0  0  0  0  0  0  0  0  0
   -5.3764   10.2988    0.0000 N   0  0  0  0  0  0  0  0  0  0  0  0
   -6.8715   10.1777    0.0000 C   0  0  0  0  0  0  0  0  0  0  0  0
   -7.8734   11.2941    0.0000 C   0  0  0  0  0  0  0  0  0  0  0  0
   -7.4075   12.7199    0.0000 C   0  0  0  0  0  0  0  0  0  0  0  0
   -5.9397   13.0293    0.0000 C   0  0  0  0  0  0  0  0  0  0  0  0
   -5.4739   14.4552    0.0000 C   0  0  0  0  0  0  0  0  0  0  0  0
   -6.4757   15.5715    0.0000 C   0  0  0  0  0  0  0  0  0  0  0  0
   -7.9434   15.2621    0.0000 C   0  0  0  0  0  0  0  0  0  0  0  0
   -8.4093   13.8363    0.0000 C   0  0  0  0  0  0  0  0  0  0  0  0
   -8.3167    9.7758    0.0000 C   0  0  0  0  0  0  0  0  0  0  0  0
   -9.0208   11.1003    0.0000 O   0  0  0  0  0  0  0  0  0  0  0  0
   -9.6597    9.1077    0.0000 N   0  0  0  0  0  0  0  0  0  0  0  0
  -10.8519    8.1974    0.0000 C   0  0  0  0  0  0  0  0  0  0  0  0
  -12.2983    8.5950    0.0000 C   0  0  0  0  0  0  0  0  0  0  0  0
  -12.6772   10.0463    0.0000 C   0  0  0  0  0  0  0  0  0  0  0  0
  -14.1236   10.4438    0.0000 C   0  0  0  0  0  0  0  0  0  0  0  0
  -14.5025   11.8952    0.0000 N   0  0  0  0  0  0  0  0  0  0  0  0
  -15.9489   12.2927    0.0000 C   0  0  0  0  0  0  0  0  0  0  0  0
  -16.3278   13.7440    0.0000 N   0  0  0  0  0  0  0  0  0  0  0  0
  -17.0163   11.2389    0.0000 N   0  0  0  0  0  0  0  0  0  0  0  0
  -11.8504    7.0780    0.0000 C   0  0  0  0  0  0  0  0  0  0  0  0
  -13.1588    7.8115    0.0000 O   0  0  0  0  0  0  0  0  0  0  0  0
  -12.6189    5.7899    0.0000 N   0  0  0  0  0  0  0  0  0  0  0  0
  -13.1298    4.3796    0.0000 C   0  0  0  0  0  0  0  0  0  0  0  0
  -14.5615    3.9320    0.0000 C   0  0  0  0  0  0  0  0  0  0  0  0
  -15.6649    4.9481    0.0000 O   0  0  0  0  0  0  0  0  0  0  0  0
  -13.3646    2.8981    0.0000 C   0  0  0  0  0  0  0  0  0  0  0  0
  -14.8619    2.8077    0.0000 O   0  0  0  0  0  0  0  0  0  0  0  0
  -13.3147    1.3989    0.0000 N   0  0  0  0  0  0  0  0  0  0  0  0
  -12.9820   -0.0638    0.0000 C   0  0  0  0  0  0  0  0  0  0  0  0
  -13.9445   -1.2143    0.0000 C   0  0  0  0  0  0  0  0  0  0  0  0
  -15.4221   -0.9560    0.0000 C   0  0  0  0  0  0  0  0  0  0  0  0
  -16.3845   -2.1066    0.0000 C   0  0  0  0  0  0  0  0  0  0  0  0
  -16.7223   -0.2080    0.0000 C   0  0  0  0  0  0  0  0  0  0  0  0
  -12.3786   -1.4370    0.0000 C   0  0  0  0  0  0  0  0  0  0  0  0
  -13.5893   -2.3225    0.0000 O   0  0  0  0  0  0  0  0  0  0  0  0
  -11.5261   -2.6712    0.0000 N   0  0  0  0  0  0  0  0  0  0  0  0
  -10.4555   -3.7218    0.0000 C   0  0  0  0  0  0  0  0  0  0  0  0
   -9.2054   -4.5508    0.0000 C   0  0  0  0  0  0  0  0  0  0  0  0
   -7.8209   -5.1282    0.0000 C   0  0  0  0  0  0  0  0  0  0  0  0
   -6.3523   -5.4332    0.0000 C   0  0  0  0  0  0  0  0  0  0  0  0
   -4.8524   -5.4547    0.0000 C   0  0  0  0  0  0  0  0  0  0  0  0
  -11.8722   -4.2146    0.0000 C   0  0  0  0  0  0  0  0  0  0  0  0
  -10.6431   -5.2100    0.0000 C   0  0  0  0  0  0  0  0  0  0  0  0
   -9.7030   -6.3789    0.0000 O   0  0  0  0  0  0  0  0  0  0  0  0
  -12.0257   -5.7917    0.0000 N   0  0  0  0  0  0  0  0  0  0  0  0
  -12.2134   -7.2799    0.0000 C   0  0  0  0  0  0  0  0  0  0  0  0
  -11.8807   -8.7425    0.0000 C   0  0  0  0  0  0  0  0  0  0  0  0
  -12.9810   -9.7619    0.0000 C   0  0  0  0  0  0  0  0  0  0  0  0
  -12.6484  -11.2246    0.0000 O   0  0  0  0  0  0  0  0  0  0  0  0
  -14.4787   -9.6787    0.0000 O   0  0  0  0  0  0  0  0  0  0  0  0
  -13.5960   -7.8615    0.0000 C   0  0  0  0  0  0  0  0  0  0  0  0
  -14.7911   -6.9549    0.0000 O   0  0  0  0  0  0  0  0  0  0  0  0
  -13.7837   -9.3497    0.0000 N   0  0  0  0  0  0  0  0  0  0  0  0
  -15.1663   -9.9313    0.0000 C   0  0  0  0  0  0  0  0  0  0  0  0
  -16.6645  -10.0050    0.0000 C   0  0  0  0  0  0  0  0  0  0  0  0
  -17.7826  -11.0049    0.0000 O   0  0  0  0  0  0  0  0  0  0  0  0
  -15.3539  -11.4195    0.0000 C   0  0  0  0  0  0  0  0  0  0  0  0
  -14.1589  -12.3261    0.0000 O   0  0  0  0  0  0  0  0  0  0  0  0
  -16.7366  -12.0012    0.0000 N   0  0  0  0  0  0  0  0  0  0  0  0
  -16.9242  -13.4894    0.0000 C   0  0  0  0  0  0  0  0  0  0  0  0
  -16.5915  -14.9520    0.0000 C   0  0  0  0  0  0  0  0  0  0  0  0
  -17.6919  -15.9714    0.0000 C   0  0  0  0  0  0  0  0  0  0  0  0
  -15.7787  -16.2127    0.0000 C   0  0  0  0  0  0  0  0  0  0  0  0
  -14.2805  -16.1390    0.0000 C   0  0  0  0  0  0  0  0  0  0  0  0
  -18.3069  -14.0710    0.0000 C   0  0  0  0  0  0  0  0  0  0  0  0
  -18.6745  -15.5252    0.0000 O   0  0  0  0  0  0  0  0  0  0  0  0
  -19.5019  -13.1644    0.0000 O   0  0  0  0  0  0  0  0  0  0  0  0
   21.2956   -0.6193    0.0000 H   0  0  0  0  0  0  0  0  0  0  0  0
   21.4853   -5.1078    0.0000 H   0  0  0  0  0  0  0  0  0  0  0  0
   24.0856   -6.6039    0.0000 H   0  0  0  0  0  0  0  0  0  0  0  0
   23.7137   -0.6490    0.0000 H   0  0  0  0  0  0  0  0  0  0  0  0
   30.6611    1.0966    0.0000 H   0  0  0  0  0  0  0  0  0  0  0  0
   31.7491   -3.9844    0.0000 H   0  0  0  0  0  0  0  0  0  0  0  0
   28.8156   -4.6126    0.0000 H   0  0  0  0  0  0  0  0  0  0  0  0
   33.6772   -2.2430    0.0000 H   0  0  0  0  0  0  0  0  0  0  0  0
   23.8714   -3.0144    0.0000 H   0  0  0  0  0  0  0  0  0  0  0  0
   21.8333   -0.6069    0.0000 H   0  0  0  0  0  0  0  0  0  0  0  0
   25.7168    2.6948    0.0000 H   0  0  0  0  0  0  0  0  0  0  0  0
   23.2447    3.4939    0.0000 H   0  0  0  0  0  0  0  0  0  0  0  0
   18.8804   -0.6117    0.0000 H   0  0  0  0  0  0  0  0  0  0  0  0
   18.5507   -4.0113    0.0000 H   0  0  0  0  0  0  0  0  0  0  0  0
   16.7698   -4.1230    0.0000 H   0  0  0  0  0  0  0  0  0  0  0  0
   17.2470   -0.9652    0.0000 H   0  0  0  0  0  0  0  0  0  0  0  0
   15.3187   -0.9681    0.0000 H   0  0  0  0  0  0  0  0  0  0  0  0
   13.6843   -0.6196    0.0000 H   0  0  0  0  0  0  0  0  0  0  0  0
   11.8735   -1.4628    0.0000 H   0  0  0  0  0  0  0  0  0  0  0  0
   13.8697   -5.4280    0.0000 H   0  0  0  0  0  0  0  0  0  0  0  0
   12.1580   -4.9238    0.0000 H   0  0  0  0  0  0  0  0  0  0  0  0
   17.2951   -4.8233    0.0000 H   0  0  0  0  0  0  0  0  0  0  0  0
   15.2864   -6.3144    0.0000 H   0  0  0  0  0  0  0  0  0  0  0  0
   10.4568   -0.5764    0.0000 H   0  0  0  0  0  0  0  0  0  0  0  0
    8.6497   -0.7603    0.0000 H   0  0  0  0  0  0  0  0  0  0  0  0
    8.9865   -5.1582    0.0000 H   0  0  0  0  0  0  0  0  0  0  0  0
    7.6149   -4.2704    0.0000 H   0  0  0  0  0  0  0  0  0  0  0  0
   11.9387   -3.6537    0.0000 H   0  0  0  0  0  0  0  0  0  0  0  0
   10.8226   -2.4604    0.0000 H   0  0  0  0  0  0  0  0  0  0  0  0
    7.4387    0.5681    0.0000 H   0  0  0  0  0  0  0  0  0  0  0  0
    5.5096    1.0861    0.0000 H   0  0  0  0  0  0  0  0  0  0  0  0
    4.3220   -3.1617    0.0000 H   0  0  0  0  0  0  0  0  0  0  0  0
    3.5234   -1.5660    0.0000 H   0  0  0  0  0  0  0  0  0  0  0  0
    7.1381   -1.3274    0.0000 H   0  0  0  0  0  0  0  0  0  0  0  0
    7.3840   -5.1126    0.0000 H   0  0  0  0  0  0  0  0  0  0  0  0
    5.7925   -5.4825    0.0000 H   0  0  0  0  0  0  0  0  0  0  0  0
    4.8054   -3.9960    0.0000 H   0  0  0  0  0  0  0  0  0  0  0  0
    8.2939   -4.2392    0.0000 H   0  0  0  0  0  0  0  0  0  0  0  0
    9.2753   -2.9329    0.0000 H   0  0  0  0  0  0  0  0  0  0  0  0
    7.5937   -1.3419    0.0000 H   0  0  0  0  0  0  0  0  0  0  0  0
    5.0761    2.5120    0.0000 H   0  0  0  0  0  0  0  0  0  0  0  0
    3.7855    1.4045    0.0000 H   0  0  0  0  0  0  0  0  0  0  0  0
    3.3103    0.0631    0.0000 H   0  0  0  0  0  0  0  0  0  0  0  0
    3.4098   -0.5150    0.0000 H   0  0  0  0  0  0  0  0  0  0  0  0
    2.8577   -1.4554    0.0000 H   0  0  0  0  0  0  0  0  0  0  0  0
    2.7858   -1.6070    0.0000 H   0  0  0  0  0  0  0  0  0  0  0  0
    2.1327   -2.8714    0.0000 H   0  0  0  0  0  0  0  0  0  0  0  0
    1.8336   -3.2788    0.0000 H   0  0  0  0  0  0  0  0  0  0  0  0
    0.9955   -4.2185    0.0000 H   0  0  0  0  0  0  0  0  0  0  0  0
    0.6248   -4.5619    0.0000 H   0  0  0  0  0  0  0  0  0  0  0  0
   -0.3761   -5.3260    0.0000 H   0  0  0  0  0  0  0  0  0  0  0  0
   -0.8051   -5.5931    0.0000 H   0  0  0  0  0  0  0  0  0  0  0  0
   -2.1155   -6.1480    0.0000 H   0  0  0  0  0  0  0  0  0  0  0  0
   -2.9737   -6.6372    0.0000 H   0  0  0  0  0  0  0  0  0  0  0  0
    5.0596    3.0095    0.0000 H   0  0  0  0  0  0  0  0  0  0  0  0
    4.6720    4.5967    0.0000 H   0  0  0  0  0  0  0  0  0  0  0  0
    2.9000    4.8073    0.0000 H   0  0  0  0  0  0  0  0  0  0  0  0
    3.1703    6.0155    0.0000 H   0  0  0  0  0  0  0  0  0  0  0  0
    2.4984    6.7840    0.0000 H   0  0  0  0  0  0  0  0  0  0  0  0
    1.6946    9.7658    0.0000 H   0  0  0  0  0  0  0  0  0  0  0  0
    0.2719    8.9625    0.0000 H   0  0  0  0  0  0  0  0  0  0  0  0
    4.5505    8.0857    0.0000 H   0  0  0  0  0  0  0  0  0  0  0  0
    3.3644    6.9621    0.0000 H   0  0  0  0  0  0  0  0  0  0  0  0
    3.7844   11.3094    0.0000 H   0  0  0  0  0  0  0  0  0  0  0  0
    2.2870   10.3388    0.0000 H   0  0  0  0  0  0  0  0  0  0  0  0
    6.0733    8.7742    0.0000 H   0  0  0  0  0  0  0  0  0  0  0  0
    7.8712   12.8994    0.0000 H   0  0  0  0  0  0  0  0  0  0  0  0
    8.1631   10.3178    0.0000 H   0  0  0  0  0  0  0  0  0  0  0  0
    5.4895   13.9375    0.0000 H   0  0  0  0  0  0  0  0  0  0  0  0
    3.3997   12.3939    0.0000 H   0  0  0  0  0  0  0  0  0  0  0  0
   -0.3001   10.2354    0.0000 H   0  0  0  0  0  0  0  0  0  0  0  0
   -1.2318   10.5636    0.0000 H   0  0  0  0  0  0  0  0  0  0  0  0
   -3.2578   12.5615    0.0000 H   0  0  0  0  0  0  0  0  0  0  0  0
   -4.1855   11.0372    0.0000 H   0  0  0  0  0  0  0  0  0  0  0  0
   -1.7681   13.6008    0.0000 H   0  0  0  0  0  0  0  0  0  0  0  0
   -5.1722   11.7849    0.0000 H   0  0  0  0  0  0  0  0  0  0  0  0
   -6.3161   11.5711    0.0000 H   0  0  0  0  0  0  0  0  0  0  0  0
   -9.1006   12.1565    0.0000 H   0  0  0  0  0  0  0  0  0  0  0  0
   -9.0570   10.3726    0.0000 H   0  0  0  0  0  0  0  0  0  0  0  0
   -4.8093   12.0434    0.0000 H   0  0  0  0  0  0  0  0  0  0  0  0
   -4.0061   14.7646    0.0000 H   0  0  0  0  0  0  0  0  0  0  0  0
   -6.0098   16.9973    0.0000 H   0  0  0  0  0  0  0  0  0  0  0  0
   -8.9453   16.3785    0.0000 H   0  0  0  0  0  0  0  0  0  0  0  0
   -9.8771   13.5268    0.0000 H   0  0  0  0  0  0  0  0  0  0  0  0
  -10.2913   10.4682    0.0000 H   0  0  0  0  0  0  0  0  0  0  0  0
  -10.9564    9.6938    0.0000 H   0  0  0  0  0  0  0  0  0  0  0  0
  -13.7934    8.4738    0.0000 H   0  0  0  0  0  0  0  0  0  0  0  0
  -12.7958    7.1799    0.0000 H   0  0  0  0  0  0  0  0  0  0  0  0
  -12.5369   11.5397    0.0000 H   0  0  0  0  0  0  0  0  0  0  0  0
  -11.2559   10.5256    0.0000 H   0  0  0  0  0  0  0  0  0  0  0  0
  -15.6187   10.3227    0.0000 H   0  0  0  0  0  0  0  0  0  0  0  0
  -14.4449    8.9786    0.0000 H   0  0  0  0  0  0  0  0  0  0  0  0
  -13.4351   12.9490    0.0000 H   0  0  0  0  0  0  0  0  0  0  0  0
  -17.7742   14.1416    0.0000 H   0  0  0  0  0  0  0  0  0  0  0  0
  -15.2603   14.7979    0.0000 H   0  0  0  0  0  0  0  0  0  0  0  0
  -18.4627   11.6364    0.0000 H   0  0  0  0  0  0  0  0  0  0  0  0
  -16.6374    9.7875    0.0000 H   0  0  0  0  0  0  0  0  0  0  0  0
  -13.9743    6.4325    0.0000 H   0  0  0  0  0  0  0  0  0  0  0  0
  -14.1666    5.4636    0.0000 H   0  0  0  0  0  0  0  0  0  0  0  0
  -15.8558    3.1739    0.0000 H   0  0  0  0  0  0  0  0  0  0  0  0
  -14.2150    2.4726    0.0000 H   0  0  0  0  0  0  0  0  0  0  0  0
  -17.0966    4.5006    0.0000 H   0  0  0  0  0  0  0  0  0  0  0  0
  -14.8147    1.3895    0.0000 H   0  0  0  0  0  0  0  0  0  0  0  0
  -14.3866    0.4628    0.0000 H   0  0  0  0  0  0  0  0  0  0  0  0
  -14.4554   -2.6246    0.0000 H   0  0  0  0  0  0  0  0  0  0  0  0
  -12.8639   -2.2547    0.0000 H   0  0  0  0  0  0  0  0  0  0  0  0
  -15.2676    0.5360    0.0000 H   0  0  0  0  0  0  0  0  0  0  0  0
  -17.8826   -2.0304    0.0000 H   0  0  0  0  0  0  0  0  0  0  0  0
  -16.8954   -3.5169    0.0000 H   0  0  0  0  0  0  0  0  0  0  0  0
  -15.1852   -3.0075    0.0000 H   0  0  0  0  0  0  0  0  0  0  0  0
  -18.1021   -0.7962    0.0000 H   0  0  0  0  0  0  0  0  0  0  0  0
  -17.6882    0.9396    0.0000 H   0  0  0  0  0  0  0  0  0  0  0  0
  -15.7598    0.9425    0.0000 H   0  0  0  0  0  0  0  0  0  0  0  0
  -12.7829   -3.4901    0.0000 H   0  0  0  0  0  0  0  0  0  0  0  0
   -9.1079   -6.0476    0.0000 H   0  0  0  0  0  0  0  0  0  0  0  0
  -10.2827   -5.5945    0.0000 H   0  0  0  0  0  0  0  0  0  0  0  0
   -7.6218   -6.6149    0.0000 H   0  0  0  0  0  0  0  0  0  0  0  0
   -8.6813   -6.3569    0.0000 H   0  0  0  0  0  0  0  0  0  0  0  0
   -5.7055   -6.7866    0.0000 H   0  0  0  0  0  0  0  0  0  0  0  0
   -7.1269   -6.7177    0.0000 H   0  0  0  0  0  0  0  0  0  0  0  0
   -4.7313   -6.9498    0.0000 H   0  0  0  0  0  0  0  0  0  0  0  0
  -12.5020   -5.5760    0.0000 H   0  0  0  0  0  0  0  0  0  0  0  0
  -13.3721   -4.1930    0.0000 H   0  0  0  0  0  0  0  0  0  0  0  0
  -12.4627   -2.8357    0.0000 H   0  0  0  0  0  0  0  0  0  0  0  0
  -13.3224   -5.0375    0.0000 H   0  0  0  0  0  0  0  0  0  0  0  0
  -10.7152   -7.2062    0.0000 H   0  0  0  0  0  0  0  0  0  0  0  0
  -11.0678  -10.0032    0.0000 H   0  0  0  0  0  0  0  0  0  0  0  0
  -10.4980   -8.1609    0.0000 H   0  0  0  0  0  0  0  0  0  0  0  0
  -12.8435  -10.5185    0.0000 H   0  0  0  0  0  0  0  0  0  0  0  0
  -15.4990   -8.4687    0.0000 H   0  0  0  0  0  0  0  0  0  0  0  0
  -18.0975   -9.5618    0.0000 H   0  0  0  0  0  0  0  0  0  0  0  0
  -16.4769   -8.5167    0.0000 H   0  0  0  0  0  0  0  0  0  0  0  0
  -18.8480  -11.4129    0.0000 H   0  0  0  0  0  0  0  0  0  0  0  0
  -18.0332  -11.2470    0.0000 H   0  0  0  0  0  0  0  0  0  0  0  0
  -15.4260  -13.4157    0.0000 H   0  0  0  0  0  0  0  0  0  0  0  0
  -15.2901  -14.2062    0.0000 H   0  0  0  0  0  0  0  0  0  0  0  0
  -17.5400  -17.4637    0.0000 H   0  0  0  0  0  0  0  0  0  0  0  0
  -19.0745  -16.5531    0.0000 H   0  0  0  0  0  0  0  0  0  0  0  0
  -18.9026  -15.0859    0.0000 H   0  0  0  0  0  0  0  0  0  0  0  0
  -15.4460  -17.6753    0.0000 H   0  0  0  0  0  0  0  0  0  0  0  0
  -17.0801  -16.9585    0.0000 H   0  0  0  0  0  0  0  0  0  0  0  0
  -13.4676  -17.3997    0.0000 H   0  0  0  0  0  0  0  0  0  0  0  0
  -12.8978  -15.5574    0.0000 H   0  0  0  0  0  0  0  0  0  0  0  0
  -14.4324  -14.6467    0.0000 H   0  0  0  0  0  0  0  0  0  0  0  0
  1  2  1  0
  2  3  1  0
  3  4  2  0
  4  5  1  0
  5  6  2  0
  6  7  1  0
  7  8  2  0
  7  9  1  0
  9 10  1  0
 10 11  1  0
 11 12  2  0
  9 13  1  0
 13 14  1  0
 14 15  2  0
 15 16  1  0
 16 17  2  0
 17 18  1  0
 16 19  1  0
 14 20  1  0
 20 21  1  0
 21 22  2  0
 22 23  1  0
 23 24  2  0
 24 25  1  0
 25 26  2  0
 25 27  1  0
  1 28  2  0
  1 29  1  0
 29 30  1  0
 30 31  1  0
 31 32  1  0
 32 33  2  0
 32 34  1  0
 34 35  1  0
 35 36  1  0
 36 37  1  0
 37 38  1  0
 37 39  2  0
 35 40  1  0
 40 41  2  0
 40 42  1  0
 42 43  1  0
 43 44  1  0
 44 45  1  0
 45 46  1  0
 46 47  2  0
 46 48  1  0
 43 49  1  0
 49 50  2  0
 49 51  1  0
 51 52  1  0
 52 53  1  0
 53 54  1  0
 54 55  1  0
 54 56  1  0
 52 57  1  0
 57 58  2  0
 57 59  1  0
 60 59  1  6
 60 61  1  0
 61 62  1  0
 62 63  1  0
 63 64  1  0
 64 65  1  0
 65 66  1  0
 66 67  1  0
 60 68  1  0
 60 69  1  0
 69 70  2  0
 69 71  1  0
 71 72  1  0
 72 73  1  0
 73 74  1  0
 74 75  1  0
 75 76  1  0
 76 77  1  0
 77 78  2  3
 77 79  1  0
 72 80  1  0
 80 81  2  0
 80 82  1  0
 82 83  1  0
 83 84  1  0
 84 85  1  0
 83 86  1  0
 86 87  2  0
 86 88  1  0
 88 89  1  0
 89 90  1  0
 90 91  1  0
 91 92  2  0
 92 93  1  0
 93 94  2  0
 94 95  1  0
 95 96  2  0
 89 97  1  0
 97 98  2  0
 97 99  1  0
 99100  1  0
100101  1  0
101102  1  0
102103  1  0
103104  1  0
104105  1  0
105106  2  3
105107  1  0
100108  1  0
108109  2  0
108110  1  0
110111  1  0
111112  1  0
112113  1  0
111114  1  0
114115  2  0
114116  1  0
116117  1  0
117118  1  0
118119  1  0
119120  1  0
119121  1  0
117122  1  0
122123  2  0
122124  1  0
124125  1  0
125126  1  0
126127  1  0
127128  1  0
128129  1  0
125130  1  0
125131  1  1
131132  2  0
131133  1  0
133134  1  0
134135  1  0
135136  1  0
136137  2  0
136138  1  0
134139  1  0
139140  2  0
139141  1  0
141142  1  0
142143  1  0
143144  1  0
142145  1  0
145146  2  0
145147  1  0
147148  1  0
148149  1  0
149150  1  0
149151  1  0
151152  1  0
148153  1  0
153154  2  0
153155  1  0
  8  3  1  0
 96 91  1  0
 11  6  1  0
 18 13  2  0
 67129  2  0
 22  9  1  0
 26 21  1  0
  2156  1  0
  4157  1  0
  5158  1  0
  8159  1  0
 15160  1  0
 17161  1  0
 18162  1  0
 19163  1  0
 23164  1  0
 24165  1  0
 26166  1  0
 27167  1  0
 29168  1  0
 30169  1  0
 30170  1  0
 31171  1  0
 31172  1  0
 34173  1  0
 35174  1  1
 36175  1  0
 36176  1  0
 38177  1  0
 38178  1  0
 42179  1  0
 43180  1  1
 44181  1  0
 44182  1  0
 45183  1  0
 45184  1  0
 51185  1  0
 52186  1  1
 53187  1  0
 53188  1  0
 54189  1  0
 55190  1  0
 55191  1  0
 55192  1  0
 56193  1  0
 56194  1  0
 56195  1  0
 59196  1  0
 61197  1  0
 61198  1  0
 62199  1  0
 62200  1  0
 63201  1  0
 63202  1  0
 64203  1  0
 64204  1  0
 65205  1  0
 65206  1  0
 66207  1  0
 66208  1  0
 67209  1  0
 68210  1  0
 68211  1  0
 68212  1  0
 71213  1  0
 72214  1  6
 73215  1  0
 73216  1  0
 74217  1  0
 74218  1  0
 75219  1  0
 75220  1  0
 76221  1  0
 78222  1  0
 78223  1  0
 79224  1  0
 79225  1  0
 82226  1  0
 83227  1  6
 84228  1  0
 84229  1  0
 85230  1  0
 88231  1  0
 89232  1  6
 90233  1  0
 90234  1  0
 92235  1  0
 93236  1  0
 94237  1  0
 95238  1  0
 96239  1  0
 99240  1  0
100241  1  6
101242  1  0
101243  1  0
102244  1  0
102245  1  0
103246  1  0
103247  1  0
104248  1  0
106249  1  0
106250  1  0
107251  1  0
107252  1  0
110253  1  0
111254  1  6
112255  1  0
112256  1  0
113257  1  0
116258  1  0
117259  1  6
118260  1  0
118261  1  0
119262  1  0
120263  1  0
120264  1  0
120265  1  0
121266  1  0
121267  1  0
121268  1  0
124269  1  0
126270  1  0
126271  1  0
127272  1  0
127273  1  0
128274  1  0
128275  1  0
129276  1  0
130277  1  0
130278  1  0
130279  1  0
133280  1  0
134281  1  1
135282  1  0
135283  1  0
141284  1  0
142285  1  6
143286  1  0
143287  1  0
144288  1  0
147289  1  0
148290  1  1
149291  1  1
150292  1  0
150293  1  0
150294  1  0
151295  1  0
151296  1  0
152297  1  0
152298  1  0
152299  1  0
M  CHG  5  48  -1  78   1 106   1 138  -1 155  -1
M  END
