
     RDKit          2D

260269  0  0  0  0  0  0  0  0999 V2000
   13.6977   -2.2766    0.0000 C   0  0  0  0  0  0  0  0  0  0  0  0
   14.9923   -3.0343    0.0000 N   0  0  0  0  0  0  0  0  0  0  0  0
   14.9835   -4.5342    0.0000 C   0  0  0  0  0  0  0  0  0  0  0  0
   13.6801   -5.2766    0.0000 C   0  0  0  0  0  0  0  0  0  0  0  0
   13.6712   -6.7765    0.0000 C   0  0  0  0  0  0  0  0  0  0  0  0
   14.9658   -7.5342    0.0000 C   0  0  0  0  0  0  0  0  0  0  0  0
   16.2693   -6.7918    0.0000 C   0  0  0  0  0  0  0  0  0  0  0  0
   16.2781   -5.2919    0.0000 C   0  0  0  0  0  0  0  0  0  0  0  0
   17.3781   -7.8021    0.0000 C   0  0  0  0  0  0  0  0  0  0  0  0
   16.7599   -9.1688    0.0000 O   0  0  0  0  0  0  0  0  0  0  0  0
   15.2691   -9.0032    0.0000 C   0  0  0  0  0  0  0  0  0  0  0  0
   14.2588  -10.1120    0.0000 O   0  0  0  0  0  0  0  0  0  0  0  0
   18.3752   -8.9227    0.0000 C   0  0  0  0  0  0  0  0  0  0  0  0
   19.8442   -8.6195    0.0000 C   0  0  0  0  0  0  0  0  0  0  0  0
   20.8413   -9.7401    0.0000 C   0  0  0  0  0  0  0  0  0  0  0  0
   20.3694  -11.1639    0.0000 C   0  0  0  0  0  0  0  0  0  0  0  0
   18.9004  -11.4671    0.0000 C   0  0  0  0  0  0  0  0  0  0  0  0
   17.9033  -10.3465    0.0000 C   0  0  0  0  0  0  0  0  0  0  0  0
   21.3665  -12.2845    0.0000 O   0  0  0  0  0  0  0  0  0  0  0  0
   20.3161   -7.1956    0.0000 O   0  0  0  0  0  0  0  0  0  0  0  0
   19.3190   -6.0750    0.0000 C   0  0  0  0  0  0  0  0  0  0  0  0
   17.8500   -6.3782    0.0000 C   0  0  0  0  0  0  0  0  0  0  0  0
   17.5384   -5.1161    0.0000 C   0  0  0  0  0  0  0  0  0  0  0  0
   17.7901   -4.3568    0.0000 C   0  0  0  0  0  0  0  0  0  0  0  0
   18.5736   -4.1950    0.0000 C   0  0  0  0  0  0  0  0  0  0  0  0
   19.1054   -4.7927    0.0000 C   0  0  0  0  0  0  0  0  0  0  0  0
   19.2657   -2.1068    0.0000 O   0  0  0  0  0  0  0  0  0  0  0  0
   12.3943   -3.0190    0.0000 S   0  0  0  0  0  0  0  0  0  0  0  0
   13.7066   -0.7766    0.0000 N   0  0  0  0  0  0  0  0  0  0  0  0
   12.4120   -0.0190    0.0000 C   0  0  0  0  0  0  0  0  0  0  0  0
   12.4208    1.4810    0.0000 C   0  0  0  0  0  0  0  0  0  0  0  0
   11.1262    2.2386    0.0000 C   0  0  0  0  0  0  0  0  0  0  0  0
   10.1755    1.0784    0.0000 O   0  0  0  0  0  0  0  0  0  0  0  0
   11.1350    3.7386    0.0000 N   0  0  0  0  0  0  0  0  0  0  0  0
    9.8404    4.4962    0.0000 C   0  0  0  0  0  0  0  0  0  0  0  0
    9.6823    3.0046    0.0000 C   0  0  0  0  0  0  0  0  0  0  0  0
    9.0915    1.6258    0.0000 C   0  0  0  0  0  0  0  0  0  0  0  0
    8.1206    0.4824    0.0000 C   0  0  0  0  0  0  0  0  0  0  0  0
    6.8558   -0.3240    0.0000 C   0  0  0  0  0  0  0  0  0  0  0  0
   11.0635    5.3646    0.0000 C   0  0  0  0  0  0  0  0  0  0  0  0
    9.5519    5.9682    0.0000 C   0  0  0  0  0  0  0  0  0  0  0  0
   10.9644    6.4729    0.0000 O   0  0  0  0  0  0  0  0  0  0  0  0
    8.8422    7.2897    0.0000 N   0  0  0  0  0  0  0  0  0  0  0  0
    7.7746    8.3434    0.0000 C   0  0  0  0  0  0  0  0  0  0  0  0
    7.8582    9.8410    0.0000 C   0  0  0  0  0  0  0  0  0  0  0  0
    9.1970   10.5175    0.0000 C   0  0  0  0  0  0  0  0  0  0  0  0
    9.4367   11.9982    0.0000 C   0  0  0  0  0  0  0  0  0  0  0  0
   10.9190   12.2278    0.0000 N   0  0  0  0  0  0  0  0  0  0  0  0
   11.5955   10.8890    0.0000 C   0  0  0  0  0  0  0  0  0  0  0  0
   10.5312    9.8320    0.0000 N   0  0  0  0  0  0  0  0  0  0  0  0
    6.4439    9.0355    0.0000 C   0  0  0  0  0  0  0  0  0  0  0  0
    6.9300   10.4546    0.0000 O   0  0  0  0  0  0  0  0  0  0  0  0
    4.9682    9.3047    0.0000 N   0  0  0  0  0  0  0  0  0  0  0  0
    3.4788    9.1269    0.0000 C   0  0  0  0  0  0  0  0  0  0  0  0
    2.3600   10.1261    0.0000 C   0  0  0  0  0  0  0  0  0  0  0  0
    2.6658   11.5946    0.0000 C   0  0  0  0  0  0  0  0  0  0  0  0
    1.5470   12.5937    0.0000 C   0  0  0  0  0  0  0  0  0  0  0  0
    3.4555   12.8699    0.0000 C   0  0  0  0  0  0  0  0  0  0  0  0
    2.1079    8.5181    0.0000 C   0  0  0  0  0  0  0  0  0  0  0  0
    1.3015    9.7829    0.0000 O   0  0  0  0  0  0  0  0  0  0  0  0
    0.9774    7.5322    0.0000 N   0  0  0  0  0  0  0  0  0  0  0  0
    0.1878    6.2569    0.0000 C   0  0  0  0  0  0  0  0  0  0  0  0
   -1.2910    6.0051    0.0000 C   0  0  0  0  0  0  0  0  0  0  0  0
   -0.1909    4.8055    0.0000 C   0  0  0  0  0  0  0  0  0  0  0  0
   -0.9797    5.2084    0.0000 O   0  0  0  0  0  0  0  0  0  0  0  0
   -0.1250    3.3069    0.0000 N   0  0  0  0  0  0  0  0  0  0  0  0
    0.3797    1.8944    0.0000 C   0  0  0  0  0  0  0  0  0  0  0  0
    1.2784    0.6934    0.0000 C   0  0  0  0  0  0  0  0  0  0  0  0
    2.4911   -0.1894    0.0000 C   0  0  0  0  0  0  0  0  0  0  0  0
    3.9102   -0.6755    0.0000 C   0  0  0  0  0  0  0  0  0  0  0  0
    5.4095   -0.7217    0.0000 C   0  0  0  0  0  0  0  0  0  0  0  0
    0.2923    0.3029    0.0000 C   0  0  0  0  0  0  0  0  0  0  0  0
    0.5735   -1.0348    0.0000 C   0  0  0  0  0  0  0  0  0  0  0  0
    0.5964   -2.4015    0.0000 C   0  0  0  0  0  0  0  0  0  0  0  0
    0.3603   -3.7479    0.0000 C   0  0  0  0  0  0  0  0  0  0  0  0
   -0.9952    2.7006    0.0000 C   0  0  0  0  0  0  0  0  0  0  0  0
    0.7111    4.0894    0.0000 O   0  0  0  0  0  0  0  0  0  0  0  0
   -1.9549    3.6739    0.0000 N   0  0  0  0  0  0  0  0  0  0  0  0
   -3.0815    4.4480    0.0000 C   0  0  0  0  0  0  0  0  0  0  0  0
   -2.8145    6.5583    0.0000 C   0  0  0  0  0  0  0  0  0  0  0  0
   -4.0548    7.4019    0.0000 C   0  0  0  0  0  0  0  0  0  0  0  0
   -4.3343    4.9949    0.0000 C   0  0  0  0  0  0  0  0  0  0  0  0
   -3.9645    6.5528    0.0000 O   0  0  0  0  0  0  0  0  0  0  0  0
   -5.6679    5.2948    0.0000 N   0  0  0  0  0  0  0  0  0  0  0  0
   -7.0342    5.3370    0.0000 C   0  0  0  0  0  0  0  0  0  0  0  0
   -8.3837    5.1198    0.0000 C   0  0  0  0  0  0  0  0  0  0  0  0
   -8.9382    7.2487    0.0000 O   0  0  0  0  0  0  0  0  0  0  0  0
   -9.6678    4.6511    0.0000 N   0  0  0  0  0  0  0  0  0  0  0  0
  -10.8399    3.9478    0.0000 C   0  0  0  0  0  0  0  0  0  0  0  0
  -12.6486    5.0674    0.0000 C   0  0  0  0  0  0  0  0  0  0  0  0
  -12.8634    6.5519    0.0000 C   0  0  0  0  0  0  0  0  0  0  0  0
  -14.2564    7.1081    0.0000 O   0  0  0  0  0  0  0  0  0  0  0  0
  -11.6851    7.4802    0.0000 O   0  0  0  0  0  0  0  0  0  0  0  0
  -11.8578    3.0355    0.0000 C   0  0  0  0  0  0  0  0  0  0  0  0
  -13.5910    4.3847    0.0000 O   0  0  0  0  0  0  0  0  0  0  0  0
  -12.6847    1.9470    0.0000 N   0  0  0  0  0  0  0  0  0  0  0  0
  -13.2905    0.7217    0.0000 C   0  0  0  0  0  0  0  0  0  0  0  0
  -15.4173    0.6857    0.0000 C   0  0  0  0  0  0  0  0  0  0  0  0
  -16.4006    1.8184    0.0000 C   0  0  0  0  0  0  0  0  0  0  0  0
  -16.0622    3.2797    0.0000 C   0  0  0  0  0  0  0  0  0  0  0  0
  -17.3474    4.0532    0.0000 N   0  0  0  0  0  0  0  0  0  0  0  0
  -18.4802    3.0698    0.0000 C   0  0  0  0  0  0  0  0  0  0  0  0
  -19.9689    3.2536    0.0000 C   0  0  0  0  0  0  0  0  0  0  0  0
  -20.8724    2.0563    0.0000 C   0  0  0  0  0  0  0  0  0  0  0  0
  -20.2872    0.6751    0.0000 C   0  0  0  0  0  0  0  0  0  0  0  0
  -18.7985    0.4913    0.0000 C   0  0  0  0  0  0  0  0  0  0  0  0
  -17.8950    1.6887    0.0000 C   0  0  0  0  0  0  0  0  0  0  0  0
  -13.6536   -0.5961    0.0000 C   0  0  0  0  0  0  0  0  0  0  0  0
  -15.8411   -0.3981    0.0000 O   0  0  0  0  0  0  0  0  0  0  0  0
  -13.7607   -1.9589    0.0000 N   0  0  0  0  0  0  0  0  0  0  0  0
  -13.6079   -3.3172    0.0000 C   0  0  0  0  0  0  0  0  0  0  0  0
  -15.3776   -4.4973    0.0000 C   0  0  0  0  0  0  0  0  0  0  0  0
  -16.8172   -4.0760    0.0000 C   0  0  0  0  0  0  0  0  0  0  0  0
  -17.9019   -5.1122    0.0000 C   0  0  0  0  0  0  0  0  0  0  0  0
  -19.3415   -4.6909    0.0000 C   0  0  0  0  0  0  0  0  0  0  0  0
  -13.2009   -4.6221    0.0000 C   0  0  0  0  0  0  0  0  0  0  0  0
  -15.1482   -5.6382    0.0000 O   0  0  0  0  0  0  0  0  0  0  0  0
  -12.5542   -5.8264    0.0000 N   0  0  0  0  0  0  0  0  0  0  0  0
  -11.6913   -6.8866    0.0000 C   0  0  0  0  0  0  0  0  0  0  0  0
  -12.5421   -8.8361    0.0000 C   0  0  0  0  0  0  0  0  0  0  0  0
  -13.9809   -9.2600    0.0000 C   0  0  0  0  0  0  0  0  0  0  0  0
  -14.3332  -10.7180    0.0000 O   0  0  0  0  0  0  0  0  0  0  0  0
  -15.0675   -8.2259    0.0000 O   0  0  0  0  0  0  0  0  0  0  0  0
  -10.6434   -7.7643    0.0000 C   0  0  0  0  0  0  0  0  0  0  0  0
  -11.7322   -9.6718    0.0000 O   0  0  0  0  0  0  0  0  0  0  0  0
   -9.4483   -8.4278    0.0000 N   0  0  0  0  0  0  0  0  0  0  0  0
   -8.1492   -8.8531    0.0000 C   0  0  0  0  0  0  0  0  0  0  0  0
   -6.7932   -9.0249    0.0000 C   0  0  0  0  0  0  0  0  0  0  0  0
   -5.4291   -8.9370    0.0000 C   0  0  0  0  0  0  0  0  0  0  0  0
   -4.1063   -8.5924    0.0000 C   0  0  0  0  0  0  0  0  0  0  0  0
   -2.8726   -8.0038    0.0000 C   0  0  0  0  0  0  0  0  0  0  0  0
   -1.7726   -7.1924    0.0000 C   0  0  0  0  0  0  0  0  0  0  0  0
   -0.8460   -6.1874    0.0000 C   0  0  0  0  0  0  0  0  0  0  0  0
   -0.1264   -5.0252    0.0000 C   0  0  0  0  0  0  0  0  0  0  0  0
   -9.3541  -10.6060    0.0000 C   0  0  0  0  0  0  0  0  0  0  0  0
   -7.8109  -10.9531    0.0000 C   0  0  0  0  0  0  0  0  0  0  0  0
   -8.6466  -12.1988    0.0000 O   0  0  0  0  0  0  0  0  0  0  0  0
   -6.4499  -11.5837    0.0000 O   0  0  0  0  0  0  0  0  0  0  0  0
   16.1956   -2.1386    0.0000 H   0  0  0  0  0  0  0  0  0  0  0  0
   12.3855   -4.5189    0.0000 H   0  0  0  0  0  0  0  0  0  0  0  0
   12.3678   -7.5189    0.0000 H   0  0  0  0  0  0  0  0  0  0  0  0
   16.9188   -4.6803    0.0000 H   0  0  0  0  0  0  0  0  0  0  0  0
   22.3104   -9.4368    0.0000 H   0  0  0  0  0  0  0  0  0  0  0  0
   18.4285  -12.8910    0.0000 H   0  0  0  0  0  0  0  0  0  0  0  0
   16.4342  -10.6497    0.0000 H   0  0  0  0  0  0  0  0  0  0  0  0
   20.8946  -13.7083    0.0000 H   0  0  0  0  0  0  0  0  0  0  0  0
   15.3838   -5.5609    0.0000 H   0  0  0  0  0  0  0  0  0  0  0  0
   16.4717   -2.6000    0.0000 H   0  0  0  0  0  0  0  0  0  0  0  0
   21.2600   -4.3480    0.0000 H   0  0  0  0  0  0  0  0  0  0  0  0
   20.7348   -1.8035    0.0000 H   0  0  0  0  0  0  0  0  0  0  0  0
   15.0100   -0.0343    0.0000 H   0  0  0  0  0  0  0  0  0  0  0  0
   11.8906   -1.4255    0.0000 H   0  0  0  0  0  0  0  0  0  0  0  0
   10.9363    0.2501    0.0000 H   0  0  0  0  0  0  0  0  0  0  0  0
   13.8964    1.2118    0.0000 H   0  0  0  0  0  0  0  0  0  0  0  0
   12.9421    2.8875    0.0000 H   0  0  0  0  0  0  0  0  0  0  0  0
   12.5192    4.3165    0.0000 H   0  0  0  0  0  0  0  0  0  0  0  0
   11.1782    3.1152    0.0000 H   0  0  0  0  0  0  0  0  0  0  0  0
   10.5537    1.7837    0.0000 H   0  0  0  0  0  0  0  0  0  0  0  0
   10.4290    0.9468    0.0000 H   0  0  0  0  0  0  0  0  0  0  0  0
    9.8948    0.3590    0.0000 H   0  0  0  0  0  0  0  0  0  0  0  0
    9.5008   -0.1049    0.0000 H   0  0  0  0  0  0  0  0  0  0  0  0
    8.3354   -1.0021    0.0000 H   0  0  0  0  0  0  0  0  0  0  0  0
    7.4646   -1.6948    0.0000 H   0  0  0  0  0  0  0  0  0  0  0  0
   12.4931    4.9105    0.0000 H   0  0  0  0  0  0  0  0  0  0  0  0
   11.9157    6.5990    0.0000 H   0  0  0  0  0  0  0  0  0  0  0  0
   10.2825    6.6453    0.0000 H   0  0  0  0  0  0  0  0  0  0  0  0
   10.0433    8.1884    0.0000 H   0  0  0  0  0  0  0  0  0  0  0  0
    9.1741    8.8832    0.0000 H   0  0  0  0  0  0  0  0  0  0  0  0
    7.4245   11.2770    0.0000 H   0  0  0  0  0  0  0  0  0  0  0  0
    6.3700   10.0290    0.0000 H   0  0  0  0  0  0  0  0  0  0  0  0
    8.3796   13.0625    0.0000 H   0  0  0  0  0  0  0  0  0  0  0  0
   11.6045   13.5620    0.0000 H   0  0  0  0  0  0  0  0  0  0  0  0
   13.0762   10.6494    0.0000 H   0  0  0  0  0  0  0  0  0  0  0  0
    5.0144   10.8040    0.0000 H   0  0  0  0  0  0  0  0  0  0  0  0
    4.1004   10.4921    0.0000 H   0  0  0  0  0  0  0  0  0  0  0  0
    0.9095   10.5083    0.0000 H   0  0  0  0  0  0  0  0  0  0  0  0
    1.2852    9.0798    0.0000 H   0  0  0  0  0  0  0  0  0  0  0  0
    4.1163   11.2123    0.0000 H   0  0  0  0  0  0  0  0  0  0  0  0
    1.6716   14.0885    0.0000 H   0  0  0  0  0  0  0  0  0  0  0  0
    0.1540   13.1499    0.0000 H   0  0  0  0  0  0  0  0  0  0  0  0
    0.6078   11.4242    0.0000 H   0  0  0  0  0  0  0  0  0  0  0  0
    2.9123   14.2681    0.0000 H   0  0  0  0  0  0  0  0  0  0  0  0
    4.6338   13.7982    0.0000 H   0  0  0  0  0  0  0  0  0  0  0  0
    4.5743   11.8707    0.0000 H   0  0  0  0  0  0  0  0  0  0  0  0
   -0.1659    8.5031    0.0000 H   0  0  0  0  0  0  0  0  0  0  0  0
   -0.6499    7.5012    0.0000 H   0  0  0  0  0  0  0  0  0  0  0  0
   -2.1228    7.2669    0.0000 H   0  0  0  0  0  0  0  0  0  0  0  0
   -2.7353    5.6002    0.0000 H   0  0  0  0  0  0  0  0  0  0  0  0
   -1.3261    4.5055    0.0000 H   0  0  0  0  0  0  0  0  0  0  0  0
   -1.5970    3.0184    0.0000 H   0  0  0  0  0  0  0  0  0  0  0  0
    1.1538   -0.8014    0.0000 H   0  0  0  0  0  0  0  0  0  0  0  0
   -0.1859    0.3682    0.0000 H   0  0  0  0  0  0  0  0  0  0  0  0
    2.8127   -1.6545    0.0000 H   0  0  0  0  0  0  0  0  0  0  0  0
    1.5404   -1.3496    0.0000 H   0  0  0  0  0  0  0  0  0  0  0  0
    4.4847   -2.0611    0.0000 H   0  0  0  0  0  0  0  0  0  0  0  0
    3.3437   -2.0644    0.0000 H   0  0  0  0  0  0  0  0  0  0  0  0
    5.5872   -2.2111    0.0000 H   0  0  0  0  0  0  0  0  0  0  0  0
    1.9418    1.6459    0.0000 H   0  0  0  0  0  0  0  0  0  0  0  0
    2.3562   -0.0382    0.0000 H   0  0  0  0  0  0  0  0  0  0  0  0
    2.7018   -0.5122    0.0000 H   0  0  0  0  0  0  0  0  0  0  0  0
    2.5355   -1.7604    0.0000 H   0  0  0  0  0  0  0  0  0  0  0  0
    2.7851   -2.2912    0.0000 H   0  0  0  0  0  0  0  0  0  0  0  0
    2.5030   -3.3446    0.0000 H   0  0  0  0  0  0  0  0  0  0  0  0
    2.4812   -4.3322    0.0000 H   0  0  0  0  0  0  0  0  0  0  0  0
   -0.6897    5.4693    0.0000 H   0  0  0  0  0  0  0  0  0  0  0  0
   -1.5305    5.9448    0.0000 H   0  0  0  0  0  0  0  0  0  0  0  0
   -2.5484    8.0345    0.0000 H   0  0  0  0  0  0  0  0  0  0  0  0
   -1.3264    6.3697    0.0000 H   0  0  0  0  0  0  0  0  0  0  0  0
   -4.2211    8.7426    0.0000 H   0  0  0  0  0  0  0  0  0  0  0  0
   -5.5820    7.8147    0.0000 H   0  0  0  0  0  0  0  0  0  0  0  0
   -4.9613    5.9890    0.0000 H   0  0  0  0  0  0  0  0  0  0  0  0
   -5.5742    7.4893    0.0000 H   0  0  0  0  0  0  0  0  0  0  0  0
   -7.9504    7.2566    0.0000 H   0  0  0  0  0  0  0  0  0  0  0  0
   -6.5385    7.4347    0.0000 H   0  0  0  0  0  0  0  0  0  0  0  0
  -10.6151    6.6366    0.0000 H   0  0  0  0  0  0  0  0  0  0  0  0
  -11.3757    6.0063    0.0000 H   0  0  0  0  0  0  0  0  0  0  0  0
  -14.1310    5.2960    0.0000 H   0  0  0  0  0  0  0  0  0  0  0  0
  -13.3007    3.7165    0.0000 H   0  0  0  0  0  0  0  0  0  0  0  0
  -14.4493    3.2547    0.0000 H   0  0  0  0  0  0  0  0  0  0  0  0
  -14.8542    2.1637    0.0000 H   0  0  0  0  0  0  0  0  0  0  0  0
  -16.7880    0.0765    0.0000 H   0  0  0  0  0  0  0  0  0  0  0  0
  -15.2356   -0.8033    0.0000 H   0  0  0  0  0  0  0  0  0  0  0  0
  -14.7627    4.0289    0.0000 H   0  0  0  0  0  0  0  0  0  0  0  0
  -17.4772    5.5475    0.0000 H   0  0  0  0  0  0  0  0  0  0  0  0
  -20.5540    4.6348    0.0000 H   0  0  0  0  0  0  0  0  0  0  0  0
  -22.3611    2.2401    0.0000 H   0  0  0  0  0  0  0  0  0  0  0  0
  -21.1908   -0.5222    0.0000 H   0  0  0  0  0  0  0  0  0  0  0  0
  -18.2134   -0.8898    0.0000 H   0  0  0  0  0  0  0  0  0  0  0  0
  -15.9522   -1.8128    0.0000 H   0  0  0  0  0  0  0  0  0  0  0  0
  -15.6301   -2.7814    0.0000 H   0  0  0  0  0  0  0  0  0  0  0  0
  -16.0425   -5.8419    0.0000 H   0  0  0  0  0  0  0  0  0  0  0  0
  -14.4197   -5.6517    0.0000 H   0  0  0  0  0  0  0  0  0  0  0  0
  -17.9087   -3.0471    0.0000 H   0  0  0  0  0  0  0  0  0  0  0  0
  -16.4975   -2.6105    0.0000 H   0  0  0  0  0  0  0  0  0  0  0  0
  -18.5668   -6.4568    0.0000 H   0  0  0  0  0  0  0  0  0  0  0  0
  -16.8105   -6.1411    0.0000 H   0  0  0  0  0  0  0  0  0  0  0  0
  -20.4262   -5.7270    0.0000 H   0  0  0  0  0  0  0  0  0  0  0  0
  -20.5502   -3.8026    0.0000 H   0  0  0  0  0  0  0  0  0  0  0  0
  -18.8455   -3.2753    0.0000 H   0  0  0  0  0  0  0  0  0  0  0  0
  -14.3847   -7.0467    0.0000 H   0  0  0  0  0  0  0  0  0  0  0  0
  -13.6526   -7.7099    0.0000 H   0  0  0  0  0  0  0  0  0  0  0  0
  -12.5574  -10.3360    0.0000 H   0  0  0  0  0  0  0  0  0  0  0  0
  -11.1122   -9.2893    0.0000 H   0  0  0  0  0  0  0  0  0  0  0  0
  -10.4916  -10.3606    0.0000 H   0  0  0  0  0  0  0  0  0  0  0  0
   -6.0635  -11.0229    0.0000 H   0  0  0  0  0  0  0  0  0  0  0  0
   -7.3174  -11.1378    0.0000 H   0  0  0  0  0  0  0  0  0  0  0  0
   -4.4799  -10.8722    0.0000 H   0  0  0  0  0  0  0  0  0  0  0  0
   -5.5440  -11.1109    0.0000 H   0  0  0  0  0  0  0  0  0  0  0  0
   -2.8080  -10.3131    0.0000 H   0  0  0  0  0  0  0  0  0  0  0  0
   -3.9908  -10.7448    0.0000 H   0  0  0  0  0  0  0  0  0  0  0  0
   -1.2722   -9.4477    0.0000 H   0  0  0  0  0  0  0  0  0  0  0  0
   -2.3519  -10.0955    0.0000 H   0  0  0  0  0  0  0  0  0  0  0  0
    0.0722   -8.3072    0.0000 H   0  0  0  0  0  0  0  0  0  0  0  0
   -0.8655   -9.1477    0.0000 H   0  0  0  0  0  0  0  0  0  0  0  0
    1.2047   -6.7520    0.0000 H   0  0  0  0  0  0  0  0  0  0  0  0
    0.4147   -7.9357    0.0000 H   0  0  0  0  0  0  0  0  0  0  0  0
    1.8457   -6.0004    0.0000 H   0  0  0  0  0  0  0  0  0  0  0  0
   -9.1322  -12.0895    0.0000 H   0  0  0  0  0  0  0  0  0  0  0  0
  -10.6190  -11.4122    0.0000 H   0  0  0  0  0  0  0  0  0  0  0  0
  -10.4948   -9.6321    0.0000 H   0  0  0  0  0  0  0  0  0  0  0  0
  1  2  1  0
  2  3  1  0
  3  4  2  0
  4  5  1  0
  5  6  2  0
  6  7  1  0
  7  8  2  0
  7  9  1  0
  9 10  1  0
 10 11  1  0
 11 12  2  0
  9 13  1  0
 13 14  1  0
 14 15  2  0
 15 16  1  0
 16 17  2  0
 17 18  1  0
 16 19  1  0
 14 20  1  0
 20 21  1  0
 21 22  2  0
 22 23  1  0
 23 24  2  0
 24 25  1  0
 25 26  2  0
 25 27  1  0
  1 28  2  0
  1 29  1  0
 29 30  1  0
 30 31  1  0
 31 32  1  0
 32 33  2  0
 32 34  1  0
 35 34  1  1
 35 36  1  0
 36 37  1  0
 37 38  1  0
 38 39  1  0
 35 40  1  0
 35 41  1  0
 41 42  2  0
 41 43  1  0
 43 44  1  0
 44 45  1  0
 45 46  1  0
 46 47  2  0
 47 48  1  0
 48 49  1  0
 49 50  2  0
 44 51  1  0
 51 52  2  0
 51 53  1  0
 53 54  1  0
 54 55  1  0
 55 56  1  0
 56 57  1  0
 56 58  1  0
 54 59  1  0
 59 60  2  0
 59 61  1  0
 61 62  1  0
 62 63  1  0
 62 64  1  0
 64 65  2  0
 64 66  1  0
 66 67  1  0
 67 68  1  0
 68 69  1  0
 69 70  1  0
 70 71  1  0
 67 72  1  0
 72 73  1  0
 73 74  1  0
 74 75  1  0
 67 76  1  0
 76 77  2  0
 76 78  1  0
 78 79  1  0
 79 80  1  0
 80 81  1  0
 79 82  1  0
 82 83  2  0
 82 84  1  0
 84 85  1  0
 85 86  1  0
 86 87  2  0
 86 88  1  0
 88 89  1  0
 89 90  1  0
 90 91  1  0
 91 92  2  0
 91 93  1  0
 89 94  1  0
 94 95  2  0
 94 96  1  0
 96 97  1  0
 97 98  1  0
 98 99  1  0
 99100  2  0
100101  1  0
101102  1  0
102103  2  0
103104  1  0
104105  2  0
105106  1  0
106107  2  0
 97108  1  0
108109  2  0
108110  1  0
110111  1  0
111112  1  0
112113  1  0
113114  1  0
114115  1  0
111116  1  0
116117  2  0
116118  1  0
118119  1  0
119120  1  0
120121  1  0
121122  2  0
121123  1  0
119124  1  0
124125  2  0
124126  1  0
126127  1  0
127128  1  0
128129  1  0
129130  1  0
130131  1  0
131132  1  0
132133  1  0
133134  1  0
127135  1  0
127136  1  1
136137  2  0
136138  1  0
  8  3  1  0
 50 46  1  0
107 99  1  0
 11  6  1  0
107102  1  0
 18 13  2  0
 39 71  2  0
 22  9  1  0
 75134  2  0
 26 21  1  0
  2139  1  0
  4140  1  0
  5141  1  0
  8142  1  0
 15143  1  0
 17144  1  0
 18145  1  0
 19146  1  0
 23147  1  0
 24148  1  0
 26149  1  0
 27150  1  0
 29151  1  0
 30152  1  0
 30153  1  0
 31154  1  0
 31155  1  0
 34156  1  0
 36157  1  0
 36158  1  0
 37159  1  0
 37160  1  0
 38161  1  0
 38162  1  0
 39163  1  0
 40164  1  0
 40165  1  0
 40166  1  0
 43167  1  0
 44168  1  6
 45169  1  0
 45170  1  0
 47171  1  0
 48172  1  0
 49173  1  0
 53174  1  0
 54175  1  6
 55176  1  0
 55177  1  0
 56178  1  0
 57179  1  0
 57180  1  0
 57181  1  0
 58182  1  0
 58183  1  0
 58184  1  0
 61185  1  0
 62186  1  6
 63187  1  0
 63188  1  0
 63189  1  0
 66190  1  0
 68191  1  0
 68192  1  0
 69193  1  0
 69194  1  0
 70195  1  0
 70196  1  0
 71197  1  0
 72198  1  0
 72199  1  0
 73200  1  0
 73201  1  0
 74202  1  0
 74203  1  0
 75204  1  0
 78205  1  0
 79206  1  6
 80207  1  0
 80208  1  0
 81209  1  0
 81210  1  0
 81211  1  0
 84212  1  0
 85213  1  0
 85214  1  0
 88215  1  0
 89216  1  6
 90217  1  0
 90218  1  0
 96219  1  0
 97220  1  6
 98221  1  0
 98222  1  0
100223  1  0
101224  1  0
103225  1  0
104226  1  0
105227  1  0
106228  1  0
110229  1  0
111230  1  1
112231  1  0
112232  1  0
113233  1  0
113234  1  0
114235  1  0
114236  1  0
115237  1  0
115238  1  0
115239  1  0
118240  1  0
119241  1  6
120242  1  0
120243  1  0
126244  1  0
128245  1  0
128246  1  0
129247  1  0
129248  1  0
130249  1  0
130250  1  0
131251  1  0
131252  1  0
132253  1  0
132254  1  0
133255  1  0
133256  1  0
134257  1  0
135258  1  0
135259  1  0
135260  1  0
M  CHG  3  93  -1 123  -1 138  -1
M  END
