
     RDKit          2D

320325  0  0  0  0  0  0  0  0999 V2000
   20.6056   -2.3271    0.0000 C   0  0  0  0  0  0  0  0  0  0  0  0
   21.8959   -1.5621    0.0000 N   0  0  0  0  0  0  0  0  0  0  0  0
   23.2035   -2.2970    0.0000 C   0  0  0  0  0  0  0  0  0  0  0  0
   23.2209   -3.7969    0.0000 C   0  0  0  0  0  0  0  0  0  0  0  0
   24.5286   -4.5318    0.0000 C   0  0  0  0  0  0  0  0  0  0  0  0
   25.8188   -3.7668    0.0000 C   0  0  0  0  0  0  0  0  0  0  0  0
   25.8014   -2.2669    0.0000 C   0  0  0  0  0  0  0  0  0  0  0  0
   24.4938   -1.5320    0.0000 C   0  0  0  0  0  0  0  0  0  0  0  0
   27.2225   -1.7868    0.0000 C   0  0  0  0  0  0  0  0  0  0  0  0
   28.1182   -2.9900    0.0000 O   0  0  0  0  0  0  0  0  0  0  0  0
   27.2507   -4.2137    0.0000 C   0  0  0  0  0  0  0  0  0  0  0  0
   27.7307   -5.6348    0.0000 O   0  0  0  0  0  0  0  0  0  0  0  0
   28.6860   -1.4579    0.0000 C   0  0  0  0  0  0  0  0  0  0  0  0
   29.1330   -0.0261    0.0000 C   0  0  0  0  0  0  0  0  0  0  0  0
   30.5965    0.3028    0.0000 C   0  0  0  0  0  0  0  0  0  0  0  0
   31.6130   -0.8002    0.0000 C   0  0  0  0  0  0  0  0  0  0  0  0
   31.1661   -2.2321    0.0000 C   0  0  0  0  0  0  0  0  0  0  0  0
   29.7026   -2.5609    0.0000 C   0  0  0  0  0  0  0  0  0  0  0  0
   33.0765   -0.4714    0.0000 O   0  0  0  0  0  0  0  0  0  0  0  0
   28.1164    1.0769    0.0000 O   0  0  0  0  0  0  0  0  0  0  0  0
   26.6529    0.7481    0.0000 C   0  0  0  0  0  0  0  0  0  0  0  0
   26.2060   -0.6838    0.0000 C   0  0  0  0  0  0  0  0  0  0  0  0
   24.9510   -0.3445    0.0000 C   0  0  0  0  0  0  0  0  0  0  0  0
   24.4089    0.2438    0.0000 C   0  0  0  0  0  0  0  0  0  0  0  0
   24.6472    1.0075    0.0000 C   0  0  0  0  0  0  0  0  0  0  0  0
   25.4278    1.1828    0.0000 C   0  0  0  0  0  0  0  0  0  0  0  0
   23.1563    2.6252    0.0000 O   0  0  0  0  0  0  0  0  0  0  0  0
   20.8057   -3.8137    0.0000 S   0  0  0  0  0  0  0  0  0  0  0  0
   19.2980   -1.5922    0.0000 N   0  0  0  0  0  0  0  0  0  0  0  0
   18.0077   -2.3573    0.0000 C   0  0  0  0  0  0  0  0  0  0  0  0
   16.7001   -1.6224    0.0000 C   0  0  0  0  0  0  0  0  0  0  0  0
   15.4098   -2.3874    0.0000 C   0  0  0  0  0  0  0  0  0  0  0  0
   15.6117   -3.1586    0.0000 O   0  0  0  0  0  0  0  0  0  0  0  0
   14.1022   -1.6525    0.0000 N   0  0  0  0  0  0  0  0  0  0  0  0
   12.8119   -2.4175    0.0000 C   0  0  0  0  0  0  0  0  0  0  0  0
   13.7893   -3.5553    0.0000 C   0  0  0  0  0  0  0  0  0  0  0  0
   15.2634   -3.2777    0.0000 C   0  0  0  0  0  0  0  0  0  0  0  0
   16.2409   -4.4155    0.0000 C   0  0  0  0  0  0  0  0  0  0  0  0
   17.7150   -4.1380    0.0000 N   0  0  0  0  0  0  0  0  0  0  0  0
   18.6924   -5.2758    0.0000 C   0  0  0  0  0  0  0  0  0  0  0  0
   20.1665   -4.9982    0.0000 N   0  0  0  0  0  0  0  0  0  0  0  0
   18.1958   -6.6912    0.0000 N   0  0  0  0  0  0  0  0  0  0  0  0
   11.3378   -2.6951    0.0000 C   0  0  0  0  0  0  0  0  0  0  0  0
   11.1984   -4.1886    0.0000 O   0  0  0  0  0  0  0  0  0  0  0  0
   10.3604   -1.5573    0.0000 N   0  0  0  0  0  0  0  0  0  0  0  0
    8.8863   -1.8349    0.0000 C   0  0  0  0  0  0  0  0  0  0  0  0
    9.4156   -3.2384    0.0000 C   0  0  0  0  0  0  0  0  0  0  0  0
   10.8958   -3.4817    0.0000 C   0  0  0  0  0  0  0  0  0  0  0  0
   11.4251   -4.8852    0.0000 N   0  0  0  0  0  0  0  0  0  0  0  0
   12.0990   -2.5861    0.0000 O   0  0  0  0  0  0  0  0  0  0  0  0
    7.4061   -1.5916    0.0000 C   0  0  0  0  0  0  0  0  0  0  0  0
    6.7643   -2.9473    0.0000 O   0  0  0  0  0  0  0  0  0  0  0  0
    6.8768   -0.1881    0.0000 N   0  0  0  0  0  0  0  0  0  0  0  0
    5.3967    0.0552    0.0000 C   0  0  0  0  0  0  0  0  0  0  0  0
    5.4141   -1.4447    0.0000 C   0  0  0  0  0  0  0  0  0  0  0  0
    6.7217   -2.1795    0.0000 C   0  0  0  0  0  0  0  0  0  0  0  0
    4.9174   -2.8601    0.0000 C   0  0  0  0  0  0  0  0  0  0  0  0
    5.8949   -3.9979    0.0000 C   0  0  0  0  0  0  0  0  0  0  0  0
    4.0890    0.7901    0.0000 C   0  0  0  0  0  0  0  0  0  0  0  0
    3.0222   -0.2644    0.0000 O   0  0  0  0  0  0  0  0  0  0  0  0
    4.0716    2.2900    0.0000 N   0  0  0  0  0  0  0  0  0  0  0  0
    2.7640    3.0249    0.0000 C   0  0  0  0  0  0  0  0  0  0  0  0
    2.6862    1.5269    0.0000 C   0  0  0  0  0  0  0  0  0  0  0  0
    2.3263    0.0707    0.0000 C   0  0  0  0  0  0  0  0  0  0  0  0
    1.6974   -1.2910    0.0000 C   0  0  0  0  0  0  0  0  0  0  0  0
    0.8221   -2.5092    0.0000 C   0  0  0  0  0  0  0  0  0  0  0  0
   -0.2679   -3.5397    0.0000 C   0  0  0  0  0  0  0  0  0  0  0  0
   -1.5332   -4.3452    0.0000 C   0  0  0  0  0  0  0  0  0  0  0  0
   -2.9281   -4.8968    0.0000 C   0  0  0  0  0  0  0  0  0  0  0  0
    4.0031    3.8702    0.0000 C   0  0  0  0  0  0  0  0  0  0  0  0
    2.5568    4.5105    0.0000 C   0  0  0  0  0  0  0  0  0  0  0  0
    3.9628    5.0332    0.0000 O   0  0  0  0  0  0  0  0  0  0  0  0
    2.0723    5.9301    0.0000 N   0  0  0  0  0  0  0  0  0  0  0  0
    1.3278    7.2323    0.0000 C   0  0  0  0  0  0  0  0  0  0  0  0
    1.9133    8.6134    0.0000 C   0  0  0  0  0  0  0  0  0  0  0  0
    3.4020    8.7969    0.0000 C   0  0  0  0  0  0  0  0  0  0  0  0
    3.9874   10.1780    0.0000 O   0  0  0  0  0  0  0  0  0  0  0  0
    4.3053    7.5994    0.0000 O   0  0  0  0  0  0  0  0  0  0  0  0
    0.3504    8.3702    0.0000 C   0  0  0  0  0  0  0  0  0  0  0  0
    1.2506    9.5700    0.0000 O   0  0  0  0  0  0  0  0  0  0  0  0
   -0.8247    9.3024    0.0000 N   0  0  0  0  0  0  0  0  0  0  0  0
   -2.1550    9.9954    0.0000 C   0  0  0  0  0  0  0  0  0  0  0  0
   -2.4092   11.4737    0.0000 C   0  0  0  0  0  0  0  0  0  0  0  0
   -1.2560   12.4330    0.0000 C   0  0  0  0  0  0  0  0  0  0  0  0
   -1.5102   13.9113    0.0000 C   0  0  0  0  0  0  0  0  0  0  0  0
   -0.3570   14.8706    0.0000 N   0  0  0  0  0  0  0  0  0  0  0  0
   -0.6112   16.3489    0.0000 C   0  0  0  0  0  0  0  0  0  0  0  0
    0.5420   17.3082    0.0000 N   0  0  0  0  0  0  0  0  0  0  0  0
   -2.0185   16.8679    0.0000 N   0  0  0  0  0  0  0  0  0  0  0  0
   -3.5924   10.4242    0.0000 C   0  0  0  0  0  0  0  0  0  0  0  0
   -3.4838   11.9202    0.0000 O   0  0  0  0  0  0  0  0  0  0  0  0
   -5.0850   10.5731    0.0000 N   0  0  0  0  0  0  0  0  0  0  0  0
   -6.5788   10.4369    0.0000 C   0  0  0  0  0  0  0  0  0  0  0  0
   -7.5919   11.5431    0.0000 C   0  0  0  0  0  0  0  0  0  0  0  0
   -6.9694   12.9079    0.0000 C   0  0  0  0  0  0  0  0  0  0  0  0
   -8.9222   12.2362    0.0000 C   0  0  0  0  0  0  0  0  0  0  0  0
   -8.9872   13.7348    0.0000 C   0  0  0  0  0  0  0  0  0  0  0  0
   -8.0199   10.0205    0.0000 C   0  0  0  0  0  0  0  0  0  0  0  0
   -8.5714   11.4154    0.0000 O   0  0  0  0  0  0  0  0  0  0  0  0
   -9.3560    9.3388    0.0000 N   0  0  0  0  0  0  0  0  0  0  0  0
  -10.5391    8.4166    0.0000 C   0  0  0  0  0  0  0  0  0  0  0  0
  -11.9894    8.7995    0.0000 C   0  0  0  0  0  0  0  0  0  0  0  0
  -12.3829   10.2470    0.0000 C   0  0  0  0  0  0  0  0  0  0  0  0
  -13.8332   10.6299    0.0000 C   0  0  0  0  0  0  0  0  0  0  0  0
  -14.2267   12.0774    0.0000 C   0  0  0  0  0  0  0  0  0  0  0  0
  -15.6770   12.4603    0.0000 N   0  0  0  0  0  0  0  0  0  0  0  0
  -11.5262    7.2872    0.0000 C   0  0  0  0  0  0  0  0  0  0  0  0
  -12.8419    8.0075    0.0000 O   0  0  0  0  0  0  0  0  0  0  0  0
  -12.2817    5.9914    0.0000 N   0  0  0  0  0  0  0  0  0  0  0  0
  -12.7784    4.5760    0.0000 C   0  0  0  0  0  0  0  0  0  0  0  0
  -14.2055    4.1140    0.0000 C   0  0  0  0  0  0  0  0  0  0  0  0
  -15.3191    5.1189    0.0000 C   0  0  0  0  0  0  0  0  0  0  0  0
  -16.7462    4.6570    0.0000 C   0  0  0  0  0  0  0  0  0  0  0  0
  -17.8598    5.6619    0.0000 O   0  0  0  0  0  0  0  0  0  0  0  0
  -17.0596    3.1901    0.0000 O   0  0  0  0  0  0  0  0  0  0  0  0
  -12.9982    3.0922    0.0000 C   0  0  0  0  0  0  0  0  0  0  0  0
  -14.4945    2.9868    0.0000 O   0  0  0  0  0  0  0  0  0  0  0  0
  -12.9332    1.5936    0.0000 N   0  0  0  0  0  0  0  0  0  0  0  0
  -12.5858    0.1344    0.0000 C   0  0  0  0  0  0  0  0  0  0  0  0
  -13.5366   -1.0258    0.0000 C   0  0  0  0  0  0  0  0  0  0  0  0
  -15.0167   -0.7825    0.0000 C   0  0  0  0  0  0  0  0  0  0  0  0
  -15.9675   -1.9427    0.0000 C   0  0  0  0  0  0  0  0  0  0  0  0
  -16.3244   -0.0476    0.0000 C   0  0  0  0  0  0  0  0  0  0  0  0
  -11.9685   -1.2327    0.0000 C   0  0  0  0  0  0  0  0  0  0  0  0
  -13.1703   -2.1304    0.0000 O   0  0  0  0  0  0  0  0  0  0  0  0
  -11.1036   -2.4583    0.0000 N   0  0  0  0  0  0  0  0  0  0  0  0
  -10.0225   -3.4980    0.0000 C   0  0  0  0  0  0  0  0  0  0  0  0
   -8.7640   -4.3144    0.0000 C   0  0  0  0  0  0  0  0  0  0  0  0
   -7.3739   -4.8778    0.0000 C   0  0  0  0  0  0  0  0  0  0  0  0
   -5.9022   -5.1680    0.0000 C   0  0  0  0  0  0  0  0  0  0  0  0
   -4.4022   -5.1744    0.0000 C   0  0  0  0  0  0  0  0  0  0  0  0
  -11.4342   -4.0050    0.0000 C   0  0  0  0  0  0  0  0  0  0  0  0
  -10.1951   -4.9881    0.0000 C   0  0  0  0  0  0  0  0  0  0  0  0
   -9.2432   -6.1474    0.0000 O   0  0  0  0  0  0  0  0  0  0  0  0
  -11.5718   -5.5836    0.0000 N   0  0  0  0  0  0  0  0  0  0  0  0
  -11.7444   -7.0736    0.0000 C   0  0  0  0  0  0  0  0  0  0  0  0
  -11.3970   -8.5328    0.0000 C   0  0  0  0  0  0  0  0  0  0  0  0
  -10.5715   -9.7852    0.0000 O   0  0  0  0  0  0  0  0  0  0  0  0
  -12.3533   -9.6885    0.0000 C   0  0  0  0  0  0  0  0  0  0  0  0
  -13.1211   -7.6692    0.0000 C   0  0  0  0  0  0  0  0  0  0  0  0
  -14.3252   -6.7746    0.0000 O   0  0  0  0  0  0  0  0  0  0  0  0
  -13.2937   -9.1592    0.0000 N   0  0  0  0  0  0  0  0  0  0  0  0
  -14.6705   -9.7547    0.0000 C   0  0  0  0  0  0  0  0  0  0  0  0
  -16.1678   -9.8435    0.0000 C   0  0  0  0  0  0  0  0  0  0  0  0
  -16.9934   -8.5911    0.0000 C   0  0  0  0  0  0  0  0  0  0  0  0
  -18.4907   -8.6798    0.0000 C   0  0  0  0  0  0  0  0  0  0  0  0
  -17.3408   -7.1319    0.0000 C   0  0  0  0  0  0  0  0  0  0  0  0
  -14.8431  -11.2447    0.0000 C   0  0  0  0  0  0  0  0  0  0  0  0
  -13.6390  -12.1393    0.0000 O   0  0  0  0  0  0  0  0  0  0  0  0
  -16.2198  -11.8403    0.0000 N   0  0  0  0  0  0  0  0  0  0  0  0
  -16.3924  -13.3303    0.0000 C   0  0  0  0  0  0  0  0  0  0  0  0
  -16.0450  -14.7895    0.0000 C   0  0  0  0  0  0  0  0  0  0  0  0
  -17.1350  -15.8200    0.0000 C   0  0  0  0  0  0  0  0  0  0  0  0
  -15.2195  -16.0419    0.0000 C   0  0  0  0  0  0  0  0  0  0  0  0
  -13.7221  -15.9532    0.0000 C   0  0  0  0  0  0  0  0  0  0  0  0
  -17.7691  -13.9258    0.0000 C   0  0  0  0  0  0  0  0  0  0  0  0
  -18.1221  -15.3837    0.0000 O   0  0  0  0  0  0  0  0  0  0  0  0
  -18.9732  -13.0313    0.0000 O   0  0  0  0  0  0  0  0  0  0  0  0
   21.6958   -0.0755    0.0000 H   0  0  0  0  0  0  0  0  0  0  0  0
   21.9307   -4.5619    0.0000 H   0  0  0  0  0  0  0  0  0  0  0  0
   24.5460   -6.0317    0.0000 H   0  0  0  0  0  0  0  0  0  0  0  0
   24.1139   -0.0809    0.0000 H   0  0  0  0  0  0  0  0  0  0  0  0
   31.0434    1.7346    0.0000 H   0  0  0  0  0  0  0  0  0  0  0  0
   32.1827   -3.3351    0.0000 H   0  0  0  0  0  0  0  0  0  0  0  0
   29.2556   -3.9928    0.0000 H   0  0  0  0  0  0  0  0  0  0  0  0
   34.0931   -1.5744    0.0000 H   0  0  0  0  0  0  0  0  0  0  0  0
   24.2955   -2.4445    0.0000 H   0  0  0  0  0  0  0  0  0  0  0  0
   22.2332   -0.0577    0.0000 H   0  0  0  0  0  0  0  0  0  0  0  0
   26.0833    3.2829    0.0000 H   0  0  0  0  0  0  0  0  0  0  0  0
   23.6032    4.0571    0.0000 H   0  0  0  0  0  0  0  0  0  0  0  0
   19.2806   -0.0923    0.0000 H   0  0  0  0  0  0  0  0  0  0  0  0
   18.9852   -3.4951    0.0000 H   0  0  0  0  0  0  0  0  0  0  0  0
   17.3659   -3.7130    0.0000 H   0  0  0  0  0  0  0  0  0  0  0  0
   17.6508   -0.4622    0.0000 H   0  0  0  0  0  0  0  0  0  0  0  0
   15.7226   -0.4846    0.0000 H   0  0  0  0  0  0  0  0  0  0  0  0
   14.0848   -0.1526    0.0000 H   0  0  0  0  0  0  0  0  0  0  0  0
   12.2826   -1.0140    0.0000 H   0  0  0  0  0  0  0  0  0  0  0  0
   14.1437   -5.0129    0.0000 H   0  0  0  0  0  0  0  0  0  0  0  0
   12.6020   -4.4719    0.0000 H   0  0  0  0  0  0  0  0  0  0  0  0
   16.5537   -2.5127    0.0000 H   0  0  0  0  0  0  0  0  0  0  0  0
   15.0894   -1.7879    0.0000 H   0  0  0  0  0  0  0  0  0  0  0  0
   16.7702   -5.8190    0.0000 H   0  0  0  0  0  0  0  0  0  0  0  0
   15.0535   -5.3321    0.0000 H   0  0  0  0  0  0  0  0  0  0  0  0
   18.5394   -2.8848    0.0000 H   0  0  0  0  0  0  0  0  0  0  0  0
   21.1440   -6.1360    0.0000 H   0  0  0  0  0  0  0  0  0  0  0  0
   20.8320   -3.6539    0.0000 H   0  0  0  0  0  0  0  0  0  0  0  0
   19.1732   -7.8290    0.0000 H   0  0  0  0  0  0  0  0  0  0  0  0
   16.7217   -6.9687    0.0000 H   0  0  0  0  0  0  0  0  0  0  0  0
   10.8570   -0.1419    0.0000 H   0  0  0  0  0  0  0  0  0  0  0  0
    8.8689   -0.3350    0.0000 H   0  0  0  0  0  0  0  0  0  0  0  0
    9.4330   -4.7383    0.0000 H   0  0  0  0  0  0  0  0  0  0  0  0
    7.9415   -3.5160    0.0000 H   0  0  0  0  0  0  0  0  0  0  0  0
   12.8645   -5.3071    0.0000 H   0  0  0  0  0  0  0  0  0  0  0  0
   10.4743   -6.0454    0.0000 H   0  0  0  0  0  0  0  0  0  0  0  0
    7.8276    0.9721    0.0000 H   0  0  0  0  0  0  0  0  0  0  0  0
    5.8933    1.4706    0.0000 H   0  0  0  0  0  0  0  0  0  0  0  0
    3.9339   -1.2013    0.0000 H   0  0  0  0  0  0  0  0  0  0  0  0
    6.9218   -3.6661    0.0000 H   0  0  0  0  0  0  0  0  0  0  0  0
    8.2018   -2.4229    0.0000 H   0  0  0  0  0  0  0  0  0  0  0  0
    7.5804   -0.9550    0.0000 H   0  0  0  0  0  0  0  0  0  0  0  0
    3.9666   -4.0202    0.0000 H   0  0  0  0  0  0  0  0  0  0  0  0
    3.6098   -2.1252    0.0000 H   0  0  0  0  0  0  0  0  0  0  0  0
    5.3982   -5.4133    0.0000 H   0  0  0  0  0  0  0  0  0  0  0  0
    7.2025   -4.7327    0.0000 H   0  0  0  0  0  0  0  0  0  0  0  0
    7.1983   -3.2556    0.0000 H   0  0  0  0  0  0  0  0  0  0  0  0
    5.4455    2.8921    0.0000 H   0  0  0  0  0  0  0  0  0  0  0  0
    4.1661    1.7716    0.0000 H   0  0  0  0  0  0  0  0  0  0  0  0
    3.7045    0.4255    0.0000 H   0  0  0  0  0  0  0  0  0  0  0  0
    3.8098   -0.1516    0.0000 H   0  0  0  0  0  0  0  0  0  0  0  0
    3.2672   -1.0975    0.0000 H   0  0  0  0  0  0  0  0  0  0  0  0
    3.1968   -1.2499    0.0000 H   0  0  0  0  0  0  0  0  0  0  0  0
    2.5565   -2.5207    0.0000 H   0  0  0  0  0  0  0  0  0  0  0  0
    2.2616   -2.9311    0.0000 H   0  0  0  0  0  0  0  0  0  0  0  0
    1.4329   -3.8792    0.0000 H   0  0  0  0  0  0  0  0  0  0  0  0
    1.0657   -4.2264    0.0000 H   0  0  0  0  0  0  0  0  0  0  0  0
    0.0726   -5.0005    0.0000 H   0  0  0  0  0  0  0  0  0  0  0  0
   -0.3537   -5.2719    0.0000 H   0  0  0  0  0  0  0  0  0  0  0  0
   -1.6585   -5.8400    0.0000 H   0  0  0  0  0  0  0  0  0  0  0  0
   -2.5117   -6.3378    0.0000 H   0  0  0  0  0  0  0  0  0  0  0  0
    5.4239    3.3894    0.0000 H   0  0  0  0  0  0  0  0  0  0  0  0
    5.0204    4.9726    0.0000 H   0  0  0  0  0  0  0  0  0  0  0  0
    3.2464    5.1653    0.0000 H   0  0  0  0  0  0  0  0  0  0  0  0
    3.4394    6.5474    0.0000 H   0  0  0  0  0  0  0  0  0  0  0  0
    2.8252    7.3211    0.0000 H   0  0  0  0  0  0  0  0  0  0  0  0
    2.1730   10.0907    0.0000 H   0  0  0  0  0  0  0  0  0  0  0  0
    0.5764    9.2938    0.0000 H   0  0  0  0  0  0  0  0  0  0  0  0
    0.1389   10.4519    0.0000 H   0  0  0  0  0  0  0  0  0  0  0  0
   -0.8446   10.7253    0.0000 H   0  0  0  0  0  0  0  0  0  0  0  0
   -3.1536   12.7760    0.0000 H   0  0  0  0  0  0  0  0  0  0  0  0
   -3.9016   11.3234    0.0000 H   0  0  0  0  0  0  0  0  0  0  0  0
    0.1557   12.9400    0.0000 H   0  0  0  0  0  0  0  0  0  0  0  0
   -0.2186   11.3496    0.0000 H   0  0  0  0  0  0  0  0  0  0  0  0
   -2.2546   15.2136    0.0000 H   0  0  0  0  0  0  0  0  0  0  0  0
   -2.9732   13.5802    0.0000 H   0  0  0  0  0  0  0  0  0  0  0  0
    1.0503   14.3516    0.0000 H   0  0  0  0  0  0  0  0  0  0  0  0
    0.2878   18.7865    0.0000 H   0  0  0  0  0  0  0  0  0  0  0  0
    1.9493   16.7891    0.0000 H   0  0  0  0  0  0  0  0  0  0  0  0
   -2.2727   18.3463    0.0000 H   0  0  0  0  0  0  0  0  0  0  0  0
   -3.1717   15.9087    0.0000 H   0  0  0  0  0  0  0  0  0  0  0  0
   -4.8958   12.0611    0.0000 H   0  0  0  0  0  0  0  0  0  0  0  0
   -5.8710   11.7594    0.0000 H   0  0  0  0  0  0  0  0  0  0  0  0
   -8.7661   10.6098    0.0000 H   0  0  0  0  0  0  0  0  0  0  0  0
   -8.0018   14.2154    0.0000 H   0  0  0  0  0  0  0  0  0  0  0  0
   -6.2269   14.1633    0.0000 H   0  0  0  0  0  0  0  0  0  0  0  0
   -5.6819   12.6231    0.0000 H   0  0  0  0  0  0  0  0  0  0  0  0
  -10.4093   12.4324    0.0000 H   0  0  0  0  0  0  0  0  0  0  0  0
   -9.5447   10.8714    0.0000 H   0  0  0  0  0  0  0  0  0  0  0  0
  -10.3175   14.4278    0.0000 H   0  0  0  0  0  0  0  0  0  0  0  0
   -8.5357   15.1652    0.0000 H   0  0  0  0  0  0  0  0  0  0  0  0
   -7.4968   13.9042    0.0000 H   0  0  0  0  0  0  0  0  0  0  0  0
  -10.1616   10.6042    0.0000 H   0  0  0  0  0  0  0  0  0  0  0  0
  -10.6586    9.9119    0.0000 H   0  0  0  0  0  0  0  0  0  0  0  0
  -13.4832    8.6633    0.0000 H   0  0  0  0  0  0  0  0  0  0  0  0
  -12.4726    7.3795    0.0000 H   0  0  0  0  0  0  0  0  0  0  0  0
  -12.0764   11.7153    0.0000 H   0  0  0  0  0  0  0  0  0  0  0  0
  -10.9665   10.7406    0.0000 H   0  0  0  0  0  0  0  0  0  0  0  0
  -15.2993   10.3126    0.0000 H   0  0  0  0  0  0  0  0  0  0  0  0
  -14.1397    9.1616    0.0000 H   0  0  0  0  0  0  0  0  0  0  0  0
  -14.1015   13.5721    0.0000 H   0  0  0  0  0  0  0  0  0  0  0  0
  -12.7607   12.3946    0.0000 H   0  0  0  0  0  0  0  0  0  0  0  0
  -16.0706   13.9077    0.0000 H   0  0  0  0  0  0  0  0  0  0  0  0
  -17.1708   12.3241    0.0000 H   0  0  0  0  0  0  0  0  0  0  0  0
  -15.9836   10.9919    0.0000 H   0  0  0  0  0  0  0  0  0  0  0  0
  -13.5567    6.7816    0.0000 H   0  0  0  0  0  0  0  0  0  0  0  0
  -13.6873    5.7692    0.0000 H   0  0  0  0  0  0  0  0  0  0  0  0
  -15.4921    3.3429    0.0000 H   0  0  0  0  0  0  0  0  0  0  0  0
  -13.8443    2.6582    0.0000 H   0  0  0  0  0  0  0  0  0  0  0  0
  -16.0218    6.4441    0.0000 H   0  0  0  0  0  0  0  0  0  0  0  0
  -14.3944    6.3000    0.0000 H   0  0  0  0  0  0  0  0  0  0  0  0
  -14.4330    1.5691    0.0000 H   0  0  0  0  0  0  0  0  0  0  0  0
  -13.9956    0.6467    0.0000 H   0  0  0  0  0  0  0  0  0  0  0  0
  -14.0332   -2.4412    0.0000 H   0  0  0  0  0  0  0  0  0  0  0  0
  -12.4456   -2.0553    0.0000 H   0  0  0  0  0  0  0  0  0  0  0  0
  -14.8773    0.7110    0.0000 H   0  0  0  0  0  0  0  0  0  0  0  0
  -17.4663   -1.8816    0.0000 H   0  0  0  0  0  0  0  0  0  0  0  0
  -16.4641   -3.3580    0.0000 H   0  0  0  0  0  0  0  0  0  0  0  0
  -14.7592   -2.8315    0.0000 H   0  0  0  0  0  0  0  0  0  0  0  0
  -17.6982   -0.6496    0.0000 H   0  0  0  0  0  0  0  0  0  0  0  0
  -17.3018    1.0902    0.0000 H   0  0  0  0  0  0  0  0  0  0  0  0
  -15.3736    1.1126    0.0000 H   0  0  0  0  0  0  0  0  0  0  0  0
  -12.3521   -3.2898    0.0000 H   0  0  0  0  0  0  0  0  0  0  0  0
   -8.6516   -5.8101    0.0000 H   0  0  0  0  0  0  0  0  0  0  0  0
   -9.8308   -5.3689    0.0000 H   0  0  0  0  0  0  0  0  0  0  0  0
   -7.1597   -6.3624    0.0000 H   0  0  0  0  0  0  0  0  0  0  0  0
   -8.2218   -6.1151    0.0000 H   0  0  0  0  0  0  0  0  0  0  0  0
   -5.2419   -6.5148    0.0000 H   0  0  0  0  0  0  0  0  0  0  0  0
   -6.6639   -6.4602    0.0000 H   0  0  0  0  0  0  0  0  0  0  0  0
   -4.2660   -6.6682    0.0000 H   0  0  0  0  0  0  0  0  0  0  0  0
  -12.0502   -5.3727    0.0000 H   0  0  0  0  0  0  0  0  0  0  0  0
  -12.9342   -3.9986    0.0000 H   0  0  0  0  0  0  0  0  0  0  0  0
  -12.0385   -2.6322    0.0000 H   0  0  0  0  0  0  0  0  0  0  0  0
  -12.8759   -4.8425    0.0000 H   0  0  0  0  0  0  0  0  0  0  0  0
  -10.2470   -6.9849    0.0000 H   0  0  0  0  0  0  0  0  0  0  0  0
  -10.0203   -7.9373    0.0000 H   0  0  0  0  0  0  0  0  0  0  0  0
   -9.0741   -9.6965    0.0000 H   0  0  0  0  0  0  0  0  0  0  0  0
  -12.1396  -11.0225    0.0000 H   0  0  0  0  0  0  0  0  0  0  0  0
  -13.8637  -10.1588    0.0000 H   0  0  0  0  0  0  0  0  0  0  0  0
  -13.8040   -8.8452    0.0000 H   0  0  0  0  0  0  0  0  0  0  0  0
  -12.2077  -10.1938    0.0000 H   0  0  0  0  0  0  0  0  0  0  0  0
  -14.8374   -8.2640    0.0000 H   0  0  0  0  0  0  0  0  0  0  0  0
  -17.5445  -10.4390    0.0000 H   0  0  0  0  0  0  0  0  0  0  0  0
  -16.1838  -11.3434    0.0000 H   0  0  0  0  0  0  0  0  0  0  0  0
  -15.6995   -7.8322    0.0000 H   0  0  0  0  0  0  0  0  0  0  0  0
  -19.4628   -7.5374    0.0000 H   0  0  0  0  0  0  0  0  0  0  0  0
  -19.8675   -9.2753    0.0000 H   0  0  0  0  0  0  0  0  0  0  0  0
  -18.3238  -10.1705    0.0000 H   0  0  0  0  0  0  0  0  0  0  0  0
  -18.7152   -6.5311    0.0000 H   0  0  0  0  0  0  0  0  0  0  0  0
  -17.1682   -5.6418    0.0000 H   0  0  0  0  0  0  0  0  0  0  0  0
  -15.8434   -7.0431    0.0000 H   0  0  0  0  0  0  0  0  0  0  0  0
  -17.5240  -11.0992    0.0000 H   0  0  0  0  0  0  0  0  0  0  0  0
  -14.8950  -13.2416    0.0000 H   0  0  0  0  0  0  0  0  0  0  0  0
  -14.7511  -14.0306    0.0000 H   0  0  0  0  0  0  0  0  0  0  0  0
  -16.9681  -17.3107    0.0000 H   0  0  0  0  0  0  0  0  0  0  0  0
  -18.5117  -16.4155    0.0000 H   0  0  0  0  0  0  0  0  0  0  0  0
  -18.3546  -14.9467    0.0000 H   0  0  0  0  0  0  0  0  0  0  0  0
  -14.8720  -17.5011    0.0000 H   0  0  0  0  0  0  0  0  0  0  0  0
  -16.5133  -16.8008    0.0000 H   0  0  0  0  0  0  0  0  0  0  0  0
  -12.8965  -17.2056    0.0000 H   0  0  0  0  0  0  0  0  0  0  0  0
  -12.3454  -15.3576    0.0000 H   0  0  0  0  0  0  0  0  0  0  0  0
  -13.8890  -14.4625    0.0000 H   0  0  0  0  0  0  0  0  0  0  0  0
  1  2  1  0
  2  3  1  0
  3  4  2  0
  4  5  1  0
  5  6  2  0
  6  7  1  0
  7  8  2  0
  7  9  1  0
  9 10  1  0
 10 11  1  0
 11 12  2  0
  9 13  1  0
 13 14  1  0
 14 15  2  0
 15 16  1  0
 16 17  2  0
 17 18  1  0
 16 19  1  0
 14 20  1  0
 20 21  1  0
 21 22  2  0
 22 23  1  0
 23 24  2  0
 24 25  1  0
 25 26  2  0
 25 27  1  0
  1 28  2  0
  1 29  1  0
 29 30  1  0
 30 31  1  0
 31 32  1  0
 32 33  2  0
 32 34  1  0
 34 35  1  0
 35 36  1  0
 36 37  1  0
 37 38  1  0
 38 39  1  0
 39 40  1  0
 40 41  2  3
 40 42  1  0
 35 43  1  0
 43 44  2  0
 43 45  1  0
 45 46  1  0
 46 47  1  0
 47 48  1  0
 48 49  1  0
 48 50  2  0
 46 51  1  0
 51 52  2  0
 51 53  1  0
 53 54  1  0
 54 55  1  0
 55 56  1  0
 55 57  1  0
 57 58  1  0
 54 59  1  0
 59 60  2  0
 59 61  1  0
 62 61  1  6
 62 63  1  0
 63 64  1  0
 64 65  1  0
 65 66  1  0
 66 67  1  0
 67 68  1  0
 68 69  1  0
 62 70  1  0
 62 71  1  0
 71 72  2  0
 71 73  1  0
 73 74  1  0
 74 75  1  0
 75 76  1  0
 76 77  2  0
 76 78  1  0
 74 79  1  0
 79 80  2  0
 79 81  1  0
 81 82  1  0
 82 83  1  0
 83 84  1  0
 84 85  1  0
 85 86  1  0
 86 87  1  0
 87 88  2  3
 87 89  1  0
 82 90  1  0
 90 91  2  0
 90 92  1  0
 92 93  1  0
 93 94  1  0
 94 95  1  0
 94 96  1  0
 96 97  1  0
 93 98  1  0
 98 99  2  0
 98100  1  0
100101  1  0
101102  1  0
102103  1  0
103104  1  0
104105  1  0
105106  1  0
101107  1  0
107108  2  0
107109  1  0
109110  1  0
110111  1  0
111112  1  0
112113  1  0
113114  2  0
113115  1  0
110116  1  0
116117  2  0
116118  1  0
118119  1  0
119120  1  0
120121  1  0
121122  1  0
121123  1  0
119124  1  0
124125  2  0
124126  1  0
126127  1  0
127128  1  0
128129  1  0
129130  1  0
130131  1  0
127132  1  0
127133  1  1
133134  2  0
133135  1  0
135136  1  0
136137  1  0
137138  1  0
137139  1  0
136140  1  0
140141  2  0
140142  1  0
142143  1  0
143144  1  0
144145  1  0
145146  1  0
145147  1  0
143148  1  0
148149  2  0
148150  1  0
150151  1  0
151152  1  0
152153  1  0
152154  1  0
154155  1  0
151156  1  0
156157  2  0
156158  1  0
  8  3  1  0
 11  6  1  0
 18 13  2  0
 69131  2  0
 22  9  1  0
 26 21  1  0
  2159  1  0
  4160  1  0
  5161  1  0
  8162  1  0
 15163  1  0
 17164  1  0
 18165  1  0
 19166  1  0
 23167  1  0
 24168  1  0
 26169  1  0
 27170  1  0
 29171  1  0
 30172  1  0
 30173  1  0
 31174  1  0
 31175  1  0
 34176  1  0
 35177  1  1
 36178  1  0
 36179  1  0
 37180  1  0
 37181  1  0
 38182  1  0
 38183  1  0
 39184  1  0
 41185  1  0
 41186  1  0
 42187  1  0
 42188  1  0
 45189  1  0
 46190  1  1
 47191  1  0
 47192  1  0
 49193  1  0
 49194  1  0
 53195  1  0
 54196  1  1
 55197  1  6
 56198  1  0
 56199  1  0
 56200  1  0
 57201  1  0
 57202  1  0
 58203  1  0
 58204  1  0
 58205  1  0
 61206  1  0
 63207  1  0
 63208  1  0
 64209  1  0
 64210  1  0
 65211  1  0
 65212  1  0
 66213  1  0
 66214  1  0
 67215  1  0
 67216  1  0
 68217  1  0
 68218  1  0
 69219  1  0
 70220  1  0
 70221  1  0
 70222  1  0
 73223  1  0
 74224  1  6
 75225  1  0
 75226  1  0
 81227  1  0
 82228  1  6
 83229  1  0
 83230  1  0
 84231  1  0
 84232  1  0
 85233  1  0
 85234  1  0
 86235  1  0
 88236  1  0
 88237  1  0
 89238  1  0
 89239  1  0
 92240  1  0
 93241  1  6
 94242  1  1
 95243  1  0
 95244  1  0
 95245  1  0
 96246  1  0
 96247  1  0
 97248  1  0
 97249  1  0
 97250  1  0
100251  1  0
101252  1  6
102253  1  0
102254  1  0
103255  1  0
103256  1  0
104257  1  0
104258  1  0
105259  1  0
105260  1  0
106261  1  0
106262  1  0
106263  1  0
109264  1  0
110265  1  6
111266  1  0
111267  1  0
112268  1  0
112269  1  0
118270  1  0
119271  1  6
120272  1  0
120273  1  0
121274  1  0
122275  1  0
122276  1  0
122277  1  0
123278  1  0
123279  1  0
123280  1  0
126281  1  0
128282  1  0
128283  1  0
129284  1  0
129285  1  0
130286  1  0
130287  1  0
131288  1  0
132289  1  0
132290  1  0
132291  1  0
135292  1  0
136293  1  1
137294  1  1
138295  1  0
139296  1  0
139297  1  0
139298  1  0
142299  1  0
143300  1  6
144301  1  0
144302  1  0
145303  1  0
146304  1  0
146305  1  0
146306  1  0
147307  1  0
147308  1  0
147309  1  0
150310  1  0
151311  1  1
152312  1  1
153313  1  0
153314  1  0
153315  1  0
154316  1  0
154317  1  0
155318  1  0
155319  1  0
155320  1  0
M  CHG  6  41   1  78  -1  88   1 106   1 115  -1 158  -1
M  END
