
     RDKit          2D

466472  0  0  0  0  0  0  0  0999 V2000
   26.5341   11.1306    0.0000 C   0  0  0  0  0  0  0  0  0  0  0  0
   25.9851   12.5265    0.0000 N   0  0  0  0  0  0  0  0  0  0  0  0
   26.9196   13.6999    0.0000 C   0  0  0  0  0  0  0  0  0  0  0  0
   28.4029   13.4774    0.0000 C   0  0  0  0  0  0  0  0  0  0  0  0
   29.3374   14.6507    0.0000 C   0  0  0  0  0  0  0  0  0  0  0  0
   28.7884   16.0467    0.0000 C   0  0  0  0  0  0  0  0  0  0  0  0
   27.3050   16.2692    0.0000 C   0  0  0  0  0  0  0  0  0  0  0  0
   26.3706   15.0959    0.0000 C   0  0  0  0  0  0  0  0  0  0  0  0
   27.0583   17.7488    0.0000 C   0  0  0  0  0  0  0  0  0  0  0  0
   28.3892   18.4407    0.0000 O   0  0  0  0  0  0  0  0  0  0  0  0
   29.4585   17.3887    0.0000 C   0  0  0  0  0  0  0  0  0  0  0  0
   30.9381   17.6354    0.0000 O   0  0  0  0  0  0  0  0  0  0  0  0
   26.9676   19.2461    0.0000 C   0  0  0  0  0  0  0  0  0  0  0  0
   25.6256   19.9161    0.0000 C   0  0  0  0  0  0  0  0  0  0  0  0
   25.5349   21.4134    0.0000 C   0  0  0  0  0  0  0  0  0  0  0  0
   26.7862   22.2406    0.0000 C   0  0  0  0  0  0  0  0  0  0  0  0
   28.1282   21.5705    0.0000 C   0  0  0  0  0  0  0  0  0  0  0  0
   28.2189   20.0733    0.0000 C   0  0  0  0  0  0  0  0  0  0  0  0
   26.6954   23.7378    0.0000 O   0  0  0  0  0  0  0  0  0  0  0  0
   24.3743   19.0889    0.0000 O   0  0  0  0  0  0  0  0  0  0  0  0
   24.4650   17.5917    0.0000 C   0  0  0  0  0  0  0  0  0  0  0  0
   25.8070   16.9216    0.0000 C   0  0  0  0  0  0  0  0  0  0  0  0
   25.2715   15.7371    0.0000 C   0  0  0  0  0  0  0  0  0  0  0  0
   24.6041   15.2959    0.0000 C   0  0  0  0  0  0  0  0  0  0  0  0
   23.8883   15.6533    0.0000 C   0  0  0  0  0  0  0  0  0  0  0  0
   23.8400   16.4518    0.0000 C   0  0  0  0  0  0  0  0  0  0  0  0
   22.0531   14.4401    0.0000 O   0  0  0  0  0  0  0  0  0  0  0  0
   28.0175   10.9080    0.0000 S   0  0  0  0  0  0  0  0  0  0  0  0
   25.5996    9.9572    0.0000 N   0  0  0  0  0  0  0  0  0  0  0  0
   26.1486    8.5613    0.0000 C   0  0  0  0  0  0  0  0  0  0  0  0
   25.2141    7.3879    0.0000 C   0  0  0  0  0  0  0  0  0  0  0  0
   25.7631    5.9920    0.0000 C   0  0  0  0  0  0  0  0  0  0  0  0
   26.5600    5.9707    0.0000 O   0  0  0  0  0  0  0  0  0  0  0  0
   24.8286    4.8186    0.0000 N   0  0  0  0  0  0  0  0  0  0  0  0
   25.3776    3.4227    0.0000 C   0  0  0  0  0  0  0  0  0  0  0  0
   26.6570    4.2057    0.0000 C   0  0  0  0  0  0  0  0  0  0  0  0
   28.1271    4.5039    0.0000 O   0  0  0  0  0  0  0  0  0  0  0  0
   26.8017    5.6987    0.0000 C   0  0  0  0  0  0  0  0  0  0  0  0
   25.4160    1.9231    0.0000 C   0  0  0  0  0  0  0  0  0  0  0  0
   26.8680    1.5468    0.0000 O   0  0  0  0  0  0  0  0  0  0  0  0
   24.1366    1.1401    0.0000 N   0  0  0  0  0  0  0  0  0  0  0  0
   24.1750   -0.3594    0.0000 C   0  0  0  0  0  0  0  0  0  0  0  0
   25.6451   -0.0612    0.0000 C   0  0  0  0  0  0  0  0  0  0  0  0
   26.1218    1.3610    0.0000 C   0  0  0  0  0  0  0  0  0  0  0  0
   27.1285   -0.2837    0.0000 C   0  0  0  0  0  0  0  0  0  0  0  0
   28.0629    0.8896    0.0000 C   0  0  0  0  0  0  0  0  0  0  0  0
   23.6982   -1.7816    0.0000 C   0  0  0  0  0  0  0  0  0  0  0  0
   24.9340   -2.6318    0.0000 O   0  0  0  0  0  0  0  0  0  0  0  0
   22.2282   -2.0798    0.0000 N   0  0  0  0  0  0  0  0  0  0  0  0
   21.7514   -3.5020    0.0000 C   0  0  0  0  0  0  0  0  0  0  0  0
   23.2348   -3.7246    0.0000 C   0  0  0  0  0  0  0  0  0  0  0  0
   24.1693   -2.5512    0.0000 C   0  0  0  0  0  0  0  0  0  0  0  0
   25.6527   -2.7738    0.0000 C   0  0  0  0  0  0  0  0  0  0  0  0
   24.6460   -1.1290    0.0000 C   0  0  0  0  0  0  0  0  0  0  0  0
   20.8170   -4.6754    0.0000 C   0  0  0  0  0  0  0  0  0  0  0  0
   21.6874   -5.8970    0.0000 O   0  0  0  0  0  0  0  0  0  0  0  0
   19.3336   -4.4528    0.0000 N   0  0  0  0  0  0  0  0  0  0  0  0
   18.3991   -5.6262    0.0000 C   0  0  0  0  0  0  0  0  0  0  0  0
   19.7169   -6.3427    0.0000 C   0  0  0  0  0  0  0  0  0  0  0  0
   20.9964   -5.5597    0.0000 C   0  0  0  0  0  0  0  0  0  0  0  0
   22.3142   -6.2762    0.0000 C   0  0  0  0  0  0  0  0  0  0  0  0
   23.5936   -5.4932    0.0000 C   0  0  0  0  0  0  0  0  0  0  0  0
   24.9114   -6.2097    0.0000 N   0  0  0  0  0  0  0  0  0  0  0  0
   17.1197   -6.4092    0.0000 C   0  0  0  0  0  0  0  0  0  0  0  0
   17.3406   -7.8929    0.0000 O   0  0  0  0  0  0  0  0  0  0  0  0
   15.8019   -5.6927    0.0000 N   0  0  0  0  0  0  0  0  0  0  0  0
   14.5225   -6.4758    0.0000 C   0  0  0  0  0  0  0  0  0  0  0  0
   15.5158   -7.5998    0.0000 C   0  0  0  0  0  0  0  0  0  0  0  0
   13.0524   -6.7740    0.0000 C   0  0  0  0  0  0  0  0  0  0  0  0
   12.5757   -8.1962    0.0000 O   0  0  0  0  0  0  0  0  0  0  0  0
   12.0592   -5.6500    0.0000 N   0  0  0  0  0  0  0  0  0  0  0  0
   10.5891   -5.9482    0.0000 C   0  0  0  0  0  0  0  0  0  0  0  0
   10.5507   -4.4487    0.0000 C   0  0  0  0  0  0  0  0  0  0  0  0
   11.7251   -3.5155    0.0000 O   0  0  0  0  0  0  0  0  0  0  0  0
    9.3097   -6.7312    0.0000 C   0  0  0  0  0  0  0  0  0  0  0  0
    8.0890   -5.8594    0.0000 O   0  0  0  0  0  0  0  0  0  0  0  0
    9.3481   -8.2307    0.0000 N   0  0  0  0  0  0  0  0  0  0  0  0
    8.0687   -9.0137    0.0000 C   0  0  0  0  0  0  0  0  0  0  0  0
    7.5197   -7.6178    0.0000 C   0  0  0  0  0  0  0  0  0  0  0  0
    8.3042   -6.3393    0.0000 C   0  0  0  0  0  0  0  0  0  0  0  0
    7.1342  -10.1871    0.0000 C   0  0  0  0  0  0  0  0  0  0  0  0
    5.6509   -9.9645    0.0000 O   0  0  0  0  0  0  0  0  0  0  0  0
    7.6832  -11.5830    0.0000 N   0  0  0  0  0  0  0  0  0  0  0  0
    6.7488  -12.7564    0.0000 C   0  0  0  0  0  0  0  0  0  0  0  0
    8.0666  -13.4729    0.0000 C   0  0  0  0  0  0  0  0  0  0  0  0
    9.3460  -12.6899    0.0000 C   0  0  0  0  0  0  0  0  0  0  0  0
   10.6638  -13.4064    0.0000 O   0  0  0  0  0  0  0  0  0  0  0  0
    9.4906  -11.1969    0.0000 O   0  0  0  0  0  0  0  0  0  0  0  0
    5.4694  -13.5394    0.0000 C   0  0  0  0  0  0  0  0  0  0  0  0
    5.8695  -14.9851    0.0000 O   0  0  0  0  0  0  0  0  0  0  0  0
    4.1515  -12.8229    0.0000 N   0  0  0  0  0  0  0  0  0  0  0  0
    2.8721  -13.6060    0.0000 C   0  0  0  0  0  0  0  0  0  0  0  0
    3.8654  -14.7300    0.0000 C   0  0  0  0  0  0  0  0  0  0  0  0
    5.3355  -14.4318    0.0000 C   0  0  0  0  0  0  0  0  0  0  0  0
    6.3288  -15.5558    0.0000 C   0  0  0  0  0  0  0  0  0  0  0  0
    7.7988  -15.2575    0.0000 C   0  0  0  0  0  0  0  0  0  0  0  0
    8.2756  -13.8353    0.0000 C   0  0  0  0  0  0  0  0  0  0  0  0
    9.7456  -13.5371    0.0000 O   0  0  0  0  0  0  0  0  0  0  0  0
    7.2823  -12.7113    0.0000 C   0  0  0  0  0  0  0  0  0  0  0  0
    5.8122  -13.0095    0.0000 C   0  0  0  0  0  0  0  0  0  0  0  0
    1.4021  -13.9042    0.0000 C   0  0  0  0  0  0  0  0  0  0  0  0
    1.2836  -15.3995    0.0000 O   0  0  0  0  0  0  0  0  0  0  0  0
    0.4088  -12.7802    0.0000 N   0  0  0  0  0  0  0  0  0  0  0  0
   -1.0613  -13.0784    0.0000 C   0  0  0  0  0  0  0  0  0  0  0  0
   -0.5123  -14.4743    0.0000 C   0  0  0  0  0  0  0  0  0  0  0  0
    0.9711  -14.6969    0.0000 C   0  0  0  0  0  0  0  0  0  0  0  0
   -0.4739  -15.9738    0.0000 C   0  0  0  0  0  0  0  0  0  0  0  0
    0.9214  -16.5243    0.0000 C   0  0  0  0  0  0  0  0  0  0  0  0
   -2.5447  -12.8558    0.0000 C   0  0  0  0  0  0  0  0  0  0  0  0
   -3.1674  -14.2204    0.0000 O   0  0  0  0  0  0  0  0  0  0  0  0
   -3.0936  -11.4599    0.0000 N   0  0  0  0  0  0  0  0  0  0  0  0
   -4.5770  -11.2373    0.0000 C   0  0  0  0  0  0  0  0  0  0  0  0
   -4.5386  -12.7368    0.0000 C   0  0  0  0  0  0  0  0  0  0  0  0
   -3.2208  -13.4533    0.0000 C   0  0  0  0  0  0  0  0  0  0  0  0
   -3.1824  -14.9528    0.0000 C   0  0  0  0  0  0  0  0  0  0  0  0
   -1.8646  -15.6693    0.0000 N   0  0  0  0  0  0  0  0  0  0  0  0
   -1.8262  -17.1688    0.0000 C   0  0  0  0  0  0  0  0  0  0  0  0
   -0.6055  -18.0406    0.0000 N   0  0  0  0  0  0  0  0  0  0  0  0
   -3.1056  -17.9518    0.0000 N   0  0  0  0  0  0  0  0  0  0  0  0
   -5.8948  -10.5208    0.0000 C   0  0  0  0  0  0  0  0  0  0  0  0
   -6.9468  -11.5902    0.0000 O   0  0  0  0  0  0  0  0  0  0  0  0
   -5.9332   -9.0213    0.0000 N   0  0  0  0  0  0  0  0  0  0  0  0
   -7.2511   -8.3048    0.0000 C   0  0  0  0  0  0  0  0  0  0  0  0
   -7.7278   -9.7270    0.0000 C   0  0  0  0  0  0  0  0  0  0  0  0
   -6.7345  -10.8510    0.0000 C   0  0  0  0  0  0  0  0  0  0  0  0
   -7.2113  -12.2733    0.0000 C   0  0  0  0  0  0  0  0  0  0  0  0
   -6.2180  -13.3973    0.0000 C   0  0  0  0  0  0  0  0  0  0  0  0
   -6.6948  -14.8195    0.0000 N   0  0  0  0  0  0  0  0  0  0  0  0
   -8.2444   -7.1808    0.0000 C   0  0  0  0  0  0  0  0  0  0  0  0
   -9.5986   -7.8259    0.0000 O   0  0  0  0  0  0  0  0  0  0  0  0
   -7.7676   -5.7586    0.0000 N   0  0  0  0  0  0  0  0  0  0  0  0
   -8.7609   -4.6346    0.0000 C   0  0  0  0  0  0  0  0  0  0  0  0
   -9.6953   -5.8080    0.0000 C   0  0  0  0  0  0  0  0  0  0  0  0
   -9.1464   -7.2039    0.0000 C   0  0  0  0  0  0  0  0  0  0  0  0
  -10.0808   -8.3773    0.0000 C   0  0  0  0  0  0  0  0  0  0  0  0
   -8.1531   -8.3279    0.0000 C   0  0  0  0  0  0  0  0  0  0  0  0
   -9.3098   -3.2387    0.0000 C   0  0  0  0  0  0  0  0  0  0  0  0
  -10.8030   -3.3817    0.0000 O   0  0  0  0  0  0  0  0  0  0  0  0
   -8.3754   -2.0653    0.0000 N   0  0  0  0  0  0  0  0  0  0  0  0
   -8.9243   -0.6694    0.0000 C   0  0  0  0  0  0  0  0  0  0  0  0
   -9.9313   -1.7811    0.0000 C   0  0  0  0  0  0  0  0  0  0  0  0
  -11.1305   -2.6822    0.0000 C   0  0  0  0  0  0  0  0  0  0  0  0
  -12.4785   -3.3401    0.0000 C   0  0  0  0  0  0  0  0  0  0  0  0
  -13.9267   -3.7309    0.0000 C   0  0  0  0  0  0  0  0  0  0  0  0
  -15.4227   -3.8406    0.0000 C   0  0  0  0  0  0  0  0  0  0  0  0
  -16.9124   -3.6652    0.0000 C   0  0  0  0  0  0  0  0  0  0  0  0
  -18.3420   -3.2111    0.0000 C   0  0  0  0  0  0  0  0  0  0  0  0
   -7.4298   -0.7974    0.0000 C   0  0  0  0  0  0  0  0  0  0  0  0
   -8.1460    0.6129    0.0000 C   0  0  0  0  0  0  0  0  0  0  0  0
   -6.7260    0.1294    0.0000 O   0  0  0  0  0  0  0  0  0  0  0  0
   -7.6243    2.0192    0.0000 N   0  0  0  0  0  0  0  0  0  0  0  0
   -7.3782    3.4989    0.0000 C   0  0  0  0  0  0  0  0  0  0  0  0
   -6.0517    4.1992    0.0000 C   0  0  0  0  0  0  0  0  0  0  0  0
   -4.7820    3.4006    0.0000 C   0  0  0  0  0  0  0  0  0  0  0  0
   -3.4555    4.1009    0.0000 C   0  0  0  0  0  0  0  0  0  0  0  0
   -2.1858    3.3023    0.0000 N   0  0  0  0  0  0  0  0  0  0  0  0
   -0.8593    4.0025    0.0000 C   0  0  0  0  0  0  0  0  0  0  0  0
    0.4104    3.2039    0.0000 N   0  0  0  0  0  0  0  0  0  0  0  0
   -0.8025    5.5015    0.0000 N   0  0  0  0  0  0  0  0  0  0  0  0
   -7.4166    4.9984    0.0000 C   0  0  0  0  0  0  0  0  0  0  0  0
   -5.9607    5.3594    0.0000 O   0  0  0  0  0  0  0  0  0  0  0  0
   -7.7381    6.4636    0.0000 N   0  0  0  0  0  0  0  0  0  0  0  0
   -8.3311    7.8414    0.0000 C   0  0  0  0  0  0  0  0  0  0  0  0
   -7.5938    9.1477    0.0000 C   0  0  0  0  0  0  0  0  0  0  0  0
   -6.0939    9.1623    0.0000 C   0  0  0  0  0  0  0  0  0  0  0  0
   -5.3566   10.4686    0.0000 C   0  0  0  0  0  0  0  0  0  0  0  0
   -3.8566   10.4832    0.0000 O   0  0  0  0  0  0  0  0  0  0  0  0
   -6.1192   11.7602    0.0000 O   0  0  0  0  0  0  0  0  0  0  0  0
   -9.1741    9.0821    0.0000 C   0  0  0  0  0  0  0  0  0  0  0  0
   -8.1444   10.1729    0.0000 O   0  0  0  0  0  0  0  0  0  0  0  0
  -10.2367   10.1408    0.0000 N   0  0  0  0  0  0  0  0  0  0  0  0
  -11.4804   10.9793    0.0000 C   0  0  0  0  0  0  0  0  0  0  0  0
  -11.5664   12.4769    0.0000 C   0  0  0  0  0  0  0  0  0  0  0  0
  -10.3125   13.3001    0.0000 C   0  0  0  0  0  0  0  0  0  0  0  0
  -10.3984   14.7976    0.0000 C   0  0  0  0  0  0  0  0  0  0  0  0
   -9.1445   15.6208    0.0000 N   0  0  0  0  0  0  0  0  0  0  0  0
  -11.7383   15.4719    0.0000 O   0  0  0  0  0  0  0  0  0  0  0  0
  -12.8604   11.5673    0.0000 C   0  0  0  0  0  0  0  0  0  0  0  0
  -12.5839   13.0416    0.0000 O   0  0  0  0  0  0  0  0  0  0  0  0
  -14.3267   11.8835    0.0000 N   0  0  0  0  0  0  0  0  0  0  0  0
  -15.8263   11.9165    0.0000 C   0  0  0  0  0  0  0  0  0  0  0  0
  -16.7083   13.1298    0.0000 C   0  0  0  0  0  0  0  0  0  0  0  0
  -16.0985   14.5003    0.0000 C   0  0  0  0  0  0  0  0  0  0  0  0
  -16.9804   15.7136    0.0000 C   0  0  0  0  0  0  0  0  0  0  0  0
  -16.3706   17.0841    0.0000 N   0  0  0  0  0  0  0  0  0  0  0  0
  -18.4722   15.5565    0.0000 O   0  0  0  0  0  0  0  0  0  0  0  0
  -17.3051   11.6651    0.0000 C   0  0  0  0  0  0  0  0  0  0  0  0
  -17.8696   13.0548    0.0000 O   0  0  0  0  0  0  0  0  0  0  0  0
  -18.7096   11.1383    0.0000 N   0  0  0  0  0  0  0  0  0  0  0  0
  -19.9890   10.3553    0.0000 C   0  0  0  0  0  0  0  0  0  0  0  0
  -21.3869   10.8992    0.0000 C   0  0  0  0  0  0  0  0  0  0  0  0
  -21.6148   12.3818    0.0000 C   0  0  0  0  0  0  0  0  0  0  0  0
  -23.0127   12.9257    0.0000 C   0  0  0  0  0  0  0  0  0  0  0  0
  -23.2407   14.4083    0.0000 N   0  0  0  0  0  0  0  0  0  0  0  0
  -24.6386   14.9522    0.0000 C   0  0  0  0  0  0  0  0  0  0  0  0
  -24.8665   16.4348    0.0000 N   0  0  0  0  0  0  0  0  0  0  0  0
  -25.8086   14.0135    0.0000 N   0  0  0  0  0  0  0  0  0  0  0  0
  -21.0971    9.3443    0.0000 C   0  0  0  0  0  0  0  0  0  0  0  0
  -22.3233   10.2083    0.0000 O   0  0  0  0  0  0  0  0  0  0  0  0
  -21.9938    8.1419    0.0000 N   0  0  0  0  0  0  0  0  0  0  0  0
  -22.6468    6.7915    0.0000 C   0  0  0  0  0  0  0  0  0  0  0  0
  -24.1169    6.4933    0.0000 C   0  0  0  0  0  0  0  0  0  0  0  0
  -23.0324    5.3419    0.0000 C   0  0  0  0  0  0  0  0  0  0  0  0
  -24.5311    5.4058    0.0000 O   0  0  0  0  0  0  0  0  0  0  0  0
  -23.1367    3.8455    0.0000 N   0  0  0  0  0  0  0  0  0  0  0  0
  -22.9559    2.3565    0.0000 C   0  0  0  0  0  0  0  0  0  0  0  0
  -22.4966    0.9285    0.0000 C   0  0  0  0  0  0  0  0  0  0  0  0
  -21.7754   -0.3867    0.0000 C   0  0  0  0  0  0  0  0  0  0  0  0
  -20.8182   -1.5417    0.0000 C   0  0  0  0  0  0  0  0  0  0  0  0
  -19.6598   -2.4946    0.0000 C   0  0  0  0  0  0  0  0  0  0  0  0
  -24.3704    2.8557    0.0000 C   0  0  0  0  0  0  0  0  0  0  0  0
  -24.0314    1.3108    0.0000 C   0  0  0  0  0  0  0  0  0  0  0  0
  -24.0264   -0.1892    0.0000 O   0  0  0  0  0  0  0  0  0  0  0  0
  -25.4747    1.7194    0.0000 N   0  0  0  0  0  0  0  0  0  0  0  0
  -26.5502    0.6737    0.0000 C   0  0  0  0  0  0  0  0  0  0  0  0
  -27.2031   -0.6767    0.0000 C   0  0  0  0  0  0  0  0  0  0  0  0
  -28.6991   -0.7864    0.0000 C   0  0  0  0  0  0  0  0  0  0  0  0
  -29.3521   -2.1368    0.0000 C   0  0  0  0  0  0  0  0  0  0  0  0
  -30.8235   -2.4281    0.0000 O   0  0  0  0  0  0  0  0  0  0  0  0
  -28.5091   -3.3775    0.0000 O   0  0  0  0  0  0  0  0  0  0  0  0
  -27.9934    1.0823    0.0000 C   0  0  0  0  0  0  0  0  0  0  0  0
  -28.3613    2.5365    0.0000 O   0  0  0  0  0  0  0  0  0  0  0  0
  -29.0689    0.0366    0.0000 N   0  0  0  0  0  0  0  0  0  0  0  0
  -30.5122    0.4452    0.0000 C   0  0  0  0  0  0  0  0  0  0  0  0
  -31.7287    1.3227    0.0000 C   0  0  0  0  0  0  0  0  0  0  0  0
  -31.5770    2.8151    0.0000 C   0  0  0  0  0  0  0  0  0  0  0  0
  -32.7935    3.6926    0.0000 C   0  0  0  0  0  0  0  0  0  0  0  0
  -30.9240    4.1655    0.0000 C   0  0  0  0  0  0  0  0  0  0  0  0
  -31.5877   -0.6005    0.0000 C   0  0  0  0  0  0  0  0  0  0  0  0
  -33.0700   -0.3709    0.0000 O   0  0  0  0  0  0  0  0  0  0  0  0
  -31.3998   -2.0886    0.0000 O   0  0  0  0  0  0  0  0  0  0  0  0
   24.4856   12.5666    0.0000 H   0  0  0  0  0  0  0  0  0  0  0  0
   28.9519   12.0814    0.0000 H   0  0  0  0  0  0  0  0  0  0  0  0
   30.8208   14.4282    0.0000 H   0  0  0  0  0  0  0  0  0  0  0  0
   24.8774   14.9529    0.0000 H   0  0  0  0  0  0  0  0  0  0  0  0
   24.1928   22.0835    0.0000 H   0  0  0  0  0  0  0  0  0  0  0  0
   29.3795   22.3977    0.0000 H   0  0  0  0  0  0  0  0  0  0  0  0
   29.5609   19.4032    0.0000 H   0  0  0  0  0  0  0  0  0  0  0  0
   27.9467   24.5650    0.0000 H   0  0  0  0  0  0  0  0  0  0  0  0
   27.2397   14.7543    0.0000 H   0  0  0  0  0  0  0  0  0  0  0  0
   24.5540   13.1000    0.0000 H   0  0  0  0  0  0  0  0  0  0  0  0
   21.8717   17.4346    0.0000 H   0  0  0  0  0  0  0  0  0  0  0  0
   20.7111   15.1101    0.0000 H   0  0  0  0  0  0  0  0  0  0  0  0
   24.1162   10.1798    0.0000 H   0  0  0  0  0  0  0  0  0  0  0  0
   27.4280    9.3443    0.0000 H   0  0  0  0  0  0  0  0  0  0  0  0
   27.1419    7.4373    0.0000 H   0  0  0  0  0  0  0  0  0  0  0  0
   24.2208    8.5119    0.0000 H   0  0  0  0  0  0  0  0  0  0  0  0
   23.9347    6.6049    0.0000 H   0  0  0  0  0  0  0  0  0  0  0  0
   23.3452    5.0412    0.0000 H   0  0  0  0  0  0  0  0  0  0  0  0
   23.9075    3.1244    0.0000 H   0  0  0  0  0  0  0  0  0  0  0  0
   27.2060    2.8097    0.0000 H   0  0  0  0  0  0  0  0  0  0  0  0
   28.7736    5.8574    0.0000 H   0  0  0  0  0  0  0  0  0  0  0  0
   27.7936    6.6159    0.0000 H   0  0  0  0  0  0  0  0  0  0  0  0
   26.0696    7.1011    0.0000 H   0  0  0  0  0  0  0  0  0  0  0  0
   25.1271    5.8156    0.0000 H   0  0  0  0  0  0  0  0  0  0  0  0
   22.8188    1.8566    0.0000 H   0  0  0  0  0  0  0  0  0  0  0  0
   22.7298    0.0423    0.0000 H   0  0  0  0  0  0  0  0  0  0  0  0
   26.0452   -1.5068    0.0000 H   0  0  0  0  0  0  0  0  0  0  0  0
   27.5446    1.8362    0.0000 H   0  0  0  0  0  0  0  0  0  0  0  0
   26.0834    2.8606    0.0000 H   0  0  0  0  0  0  0  0  0  0  0  0
   24.7581    1.9750    0.0000 H   0  0  0  0  0  0  0  0  0  0  0  0
   28.4463   -1.0002    0.0000 H   0  0  0  0  0  0  0  0  0  0  0  0
   26.8286   -1.7535    0.0000 H   0  0  0  0  0  0  0  0  0  0  0  0
   29.5463    0.6671    0.0000 H   0  0  0  0  0  0  0  0  0  0  0  0
   28.5397    2.3119    0.0000 H   0  0  0  0  0  0  0  0  0  0  0  0
   27.0895    2.0309    0.0000 H   0  0  0  0  0  0  0  0  0  0  0  0
   21.2349   -0.9558    0.0000 H   0  0  0  0  0  0  0  0  0  0  0  0
   20.4336   -2.7855    0.0000 H   0  0  0  0  0  0  0  0  0  0  0  0
   24.5526   -4.4411    0.0000 H   0  0  0  0  0  0  0  0  0  0  0  0
   22.5882   -5.0781    0.0000 H   0  0  0  0  0  0  0  0  0  0  0  0
   23.0640   -1.5371    0.0000 H   0  0  0  0  0  0  0  0  0  0  0  0
   26.9456   -2.0133    0.0000 H   0  0  0  0  0  0  0  0  0  0  0  0
   26.9705   -3.4903    0.0000 H   0  0  0  0  0  0  0  0  0  0  0  0
   25.5342   -4.2691    0.0000 H   0  0  0  0  0  0  0  0  0  0  0  0
   26.1161   -0.8308    0.0000 H   0  0  0  0  0  0  0  0  0  0  0  0
   24.9716    0.3353    0.0000 H   0  0  0  0  0  0  0  0  0  0  0  0
   23.1466   -1.0889    0.0000 H   0  0  0  0  0  0  0  0  0  0  0  0
   18.7846   -3.0569    0.0000 H   0  0  0  0  0  0  0  0  0  0  0  0
   17.4058   -4.5022    0.0000 H   0  0  0  0  0  0  0  0  0  0  0  0
   20.5658   -7.5794    0.0000 H   0  0  0  0  0  0  0  0  0  0  0  0
   18.7825   -7.5161    0.0000 H   0  0  0  0  0  0  0  0  0  0  0  0
   21.7808   -4.2812    0.0000 H   0  0  0  0  0  0  0  0  0  0  0  0
   20.3046   -4.2287    0.0000 H   0  0  0  0  0  0  0  0  0  0  0  0
   23.1630   -7.5129    0.0000 H   0  0  0  0  0  0  0  0  0  0  0  0
   21.5297   -7.5547    0.0000 H   0  0  0  0  0  0  0  0  0  0  0  0
   24.7842   -4.5808    0.0000 H   0  0  0  0  0  0  0  0  0  0  0  0
   22.6003   -4.3692    0.0000 H   0  0  0  0  0  0  0  0  0  0  0  0
   26.1908   -5.4266    0.0000 H   0  0  0  0  0  0  0  0  0  0  0  0
   25.9047   -7.3337    0.0000 H   0  0  0  0  0  0  0  0  0  0  0  0
   24.1270   -7.4882    0.0000 H   0  0  0  0  0  0  0  0  0  0  0  0
   15.7635   -4.1932    0.0000 H   0  0  0  0  0  0  0  0  0  0  0  0
   13.9735   -5.0798    0.0000 H   0  0  0  0  0  0  0  0  0  0  0  0
   17.0112   -7.4830    0.0000 H   0  0  0  0  0  0  0  0  0  0  0  0
   16.0647   -8.9957    0.0000 H   0  0  0  0  0  0  0  0  0  0  0  0
   14.2364   -8.3828    0.0000 H   0  0  0  0  0  0  0  0  0  0  0  0
   12.7057   -4.2965    0.0000 H   0  0  0  0  0  0  0  0  0  0  0  0
   11.1381   -7.3441    0.0000 H   0  0  0  0  0  0  0  0  0  0  0  0
   10.0017   -3.0527    0.0000 H   0  0  0  0  0  0  0  0  0  0  0  0
    9.0806   -4.7469    0.0000 H   0  0  0  0  0  0  0  0  0  0  0  0
   11.7917   -2.1661    0.0000 H   0  0  0  0  0  0  0  0  0  0  0  0
   10.6659   -8.9472    0.0000 H   0  0  0  0  0  0  0  0  0  0  0  0
    9.0620  -10.1377    0.0000 H   0  0  0  0  0  0  0  0  0  0  0  0
    6.5264   -6.4938    0.0000 H   0  0  0  0  0  0  0  0  0  0  0  0
    6.2403   -8.4008    0.0000 H   0  0  0  0  0  0  0  0  0  0  0  0
    7.9052   -5.0485    0.0000 H   0  0  0  0  0  0  0  0  0  0  0  0
    9.7336   -5.6614    0.0000 H   0  0  0  0  0  0  0  0  0  0  0  0
    9.7109   -7.2552    0.0000 H   0  0  0  0  0  0  0  0  0  0  0  0
    9.1827  -11.6231    0.0000 H   0  0  0  0  0  0  0  0  0  0  0  0
    5.7555  -11.6324    0.0000 H   0  0  0  0  0  0  0  0  0  0  0  0
    9.0599  -14.5969    0.0000 H   0  0  0  0  0  0  0  0  0  0  0  0
    7.1321  -14.6463    0.0000 H   0  0  0  0  0  0  0  0  0  0  0  0
    3.9306  -11.3393    0.0000 H   0  0  0  0  0  0  0  0  0  0  0  0
    2.3232  -12.2100    0.0000 H   0  0  0  0  0  0  0  0  0  0  0  0
    4.4144  -16.1259    0.0000 H   0  0  0  0  0  0  0  0  0  0  0  0
    2.5860  -15.5130    0.0000 H   0  0  0  0  0  0  0  0  0  0  0  0
    5.8520  -16.9780    0.0000 H   0  0  0  0  0  0  0  0  0  0  0  0
    8.7921  -16.3815    0.0000 H   0  0  0  0  0  0  0  0  0  0  0  0
   10.2224  -12.1149    0.0000 H   0  0  0  0  0  0  0  0  0  0  0  0
    8.0890  -11.4467    0.0000 H   0  0  0  0  0  0  0  0  0  0  0  0
    4.9634  -11.7728    0.0000 H   0  0  0  0  0  0  0  0  0  0  0  0
    0.8856  -11.3580    0.0000 H   0  0  0  0  0  0  0  0  0  0  0  0
   -1.0997  -11.5789    0.0000 H   0  0  0  0  0  0  0  0  0  0  0  0
   -1.8665  -15.1194    0.0000 H   0  0  0  0  0  0  0  0  0  0  0  0
    1.6861  -16.0155    0.0000 H   0  0  0  0  0  0  0  0  0  0  0  0
    2.4411  -14.3987    0.0000 H   0  0  0  0  0  0  0  0  0  0  0  0
    1.3389  -13.2472    0.0000 H   0  0  0  0  0  0  0  0  0  0  0  0
   -0.7738  -17.4436    0.0000 H   0  0  0  0  0  0  0  0  0  0  0  0
   -1.9671  -16.1168    0.0000 H   0  0  0  0  0  0  0  0  0  0  0  0
    0.8823  -18.1898    0.0000 H   0  0  0  0  0  0  0  0  0  0  0  0
    2.3273  -16.9129    0.0000 H   0  0  0  0  0  0  0  0  0  0  0  0
    1.7988  -15.5335    0.0000 H   0  0  0  0  0  0  0  0  0  0  0  0
   -2.1592  -10.2865    0.0000 H   0  0  0  0  0  0  0  0  0  0  0  0
   -4.1003   -9.8151    0.0000 H   0  0  0  0  0  0  0  0  0  0  0  0
   -5.0154  -14.1590    0.0000 H   0  0  0  0  0  0  0  0  0  0  0  0
   -5.9838  -12.3351    0.0000 H   0  0  0  0  0  0  0  0  0  0  0  0
   -1.7374  -13.6759    0.0000 H   0  0  0  0  0  0  0  0  0  0  0  0
   -2.4141  -12.1887    0.0000 H   0  0  0  0  0  0  0  0  0  0  0  0
   -3.6592  -16.3750    0.0000 H   0  0  0  0  0  0  0  0  0  0  0  0
   -4.6756  -15.0958    0.0000 H   0  0  0  0  0  0  0  0  0  0  0  0
   -0.4337  -15.2192    0.0000 H   0  0  0  0  0  0  0  0  0  0  0  0
   -0.4699  -19.3848    0.0000 H   0  0  0  0  0  0  0  0  0  0  0  0
    0.8752  -17.2771    0.0000 H   0  0  0  0  0  0  0  0  0  0  0  0
   -3.0672  -19.4514    0.0000 H   0  0  0  0  0  0  0  0  0  0  0  0
   -4.4234  -17.2354    0.0000 H   0  0  0  0  0  0  0  0  0  0  0  0
   -4.6538   -8.2383    0.0000 H   0  0  0  0  0  0  0  0  0  0  0  0
   -6.1806   -7.2541    0.0000 H   0  0  0  0  0  0  0  0  0  0  0  0
   -8.7983  -10.7778    0.0000 H   0  0  0  0  0  0  0  0  0  0  0  0
   -9.1799   -9.3507    0.0000 H   0  0  0  0  0  0  0  0  0  0  0  0
   -5.3392  -11.4016    0.0000 H   0  0  0  0  0  0  0  0  0  0  0  0
   -5.5439   -9.9387    0.0000 H   0  0  0  0  0  0  0  0  0  0  0  0
   -8.2818  -13.3240    0.0000 H   0  0  0  0  0  0  0  0  0  0  0  0
   -8.6066  -11.7228    0.0000 H   0  0  0  0  0  0  0  0  0  0  0  0
   -5.1127  -14.4113    0.0000 H   0  0  0  0  0  0  0  0  0  0  0  0
   -5.2836  -12.2239    0.0000 H   0  0  0  0  0  0  0  0  0  0  0  0
   -5.7015  -15.9435    0.0000 H   0  0  0  0  0  0  0  0  0  0  0  0
   -7.6292  -15.9929    0.0000 H   0  0  0  0  0  0  0  0  0  0  0  0
   -8.0901  -14.2690    0.0000 H   0  0  0  0  0  0  0  0  0  0  0  0
   -6.2975   -5.4604    0.0000 H   0  0  0  0  0  0  0  0  0  0  0  0
   -7.4815   -3.8516    0.0000 H   0  0  0  0  0  0  0  0  0  0  0  0
  -11.0606   -6.4292    0.0000 H   0  0  0  0  0  0  0  0  0  0  0  0
  -10.6886   -4.6840    0.0000 H   0  0  0  0  0  0  0  0  0  0  0  0
   -7.7155   -6.7538    0.0000 H   0  0  0  0  0  0  0  0  0  0  0  0
   -9.8859   -9.8646    0.0000 H   0  0  0  0  0  0  0  0  0  0  0  0
  -11.3602   -9.1603    0.0000 H   0  0  0  0  0  0  0  0  0  0  0  0
  -11.2037   -7.3828    0.0000 H   0  0  0  0  0  0  0  0  0  0  0  0
   -8.6298   -9.7502    0.0000 H   0  0  0  0  0  0  0  0  0  0  0  0
   -7.0478   -9.3420    0.0000 H   0  0  0  0  0  0  0  0  0  0  0  0
   -7.3686   -7.0494    0.0000 H   0  0  0  0  0  0  0  0  0  0  0  0
   -6.9302   -2.4670    0.0000 H   0  0  0  0  0  0  0  0  0  0  0  0
   -8.6298   -2.5268    0.0000 H   0  0  0  0  0  0  0  0  0  0  0  0
   -9.8383   -3.2782    0.0000 H   0  0  0  0  0  0  0  0  0  0  0  0
  -10.1214   -3.7920    0.0000 H   0  0  0  0  0  0  0  0  0  0  0  0
  -11.1397   -4.1822    0.0000 H   0  0  0  0  0  0  0  0  0  0  0  0
  -11.2905   -4.2558    0.0000 H   0  0  0  0  0  0  0  0  0  0  0  0
  -12.5899   -4.8359    0.0000 H   0  0  0  0  0  0  0  0  0  0  0  0
  -13.0779   -4.9676    0.0000 H   0  0  0  0  0  0  0  0  0  0  0  0
  -14.3192   -5.1787    0.0000 H   0  0  0  0  0  0  0  0  0  0  0  0
  -14.8232   -5.2156    0.0000 H   0  0  0  0  0  0  0  0  0  0  0  0
  -16.0821   -5.1879    0.0000 H   0  0  0  0  0  0  0  0  0  0  0  0
  -16.5840   -5.1288    0.0000 H   0  0  0  0  0  0  0  0  0  0  0  0
  -17.9542   -4.7445    0.0000 H   0  0  0  0  0  0  0  0  0  0  0  0
  -18.9300   -4.5910    0.0000 H   0  0  0  0  0  0  0  0  0  0  0  0
   -6.6326   -2.0680    0.0000 H   0  0  0  0  0  0  0  0  0  0  0  0
   -5.9448   -0.5860    0.0000 H   0  0  0  0  0  0  0  0  0  0  0  0
   -7.1978    0.6846    0.0000 H   0  0  0  0  0  0  0  0  0  0  0  0
   -6.2325    1.4598    0.0000 H   0  0  0  0  0  0  0  0  0  0  0  0
   -6.2778    2.4796    0.0000 H   0  0  0  0  0  0  0  0  0  0  0  0
   -5.0448    5.3110    0.0000 H   0  0  0  0  0  0  0  0  0  0  0  0
   -6.6577    5.5714    0.0000 H   0  0  0  0  0  0  0  0  0  0  0  0
   -3.8620    2.2159    0.0000 H   0  0  0  0  0  0  0  0  0  0  0  0
   -5.4901    2.0782    0.0000 H   0  0  0  0  0  0  0  0  0  0  0  0
   -2.4485    5.2126    0.0000 H   0  0  0  0  0  0  0  0  0  0  0  0
   -4.2242    5.3889    0.0000 H   0  0  0  0  0  0  0  0  0  0  0  0
   -2.2426    1.8033    0.0000 H   0  0  0  0  0  0  0  0  0  0  0  0
    1.7369    3.9042    0.0000 H   0  0  0  0  0  0  0  0  0  0  0  0
    0.3536    1.7050    0.0000 H   0  0  0  0  0  0  0  0  0  0  0  0
    0.5240    6.2018    0.0000 H   0  0  0  0  0  0  0  0  0  0  0  0
   -2.0723    6.3001    0.0000 H   0  0  0  0  0  0  0  0  0  0  0  0
   -6.2649    6.7454    0.0000 H   0  0  0  0  0  0  0  0  0  0  0  0
   -6.8543    7.5789    0.0000 H   0  0  0  0  0  0  0  0  0  0  0  0
   -7.1692   10.5863    0.0000 H   0  0  0  0  0  0  0  0  0  0  0  0
   -8.8454    9.9744    0.0000 H   0  0  0  0  0  0  0  0  0  0  0  0
   -4.6794    8.6630    0.0000 H   0  0  0  0  0  0  0  0  0  0  0  0
   -5.9746    7.6670    0.0000 H   0  0  0  0  0  0  0  0  0  0  0  0
   -9.1497   11.1744    0.0000 H   0  0  0  0  0  0  0  0  0  0  0  0
  -10.0961   11.5569    0.0000 H   0  0  0  0  0  0  0  0  0  0  0  0
  -11.9870   13.9167    0.0000 H   0  0  0  0  0  0  0  0  0  0  0  0
  -13.0663   12.4957    0.0000 H   0  0  0  0  0  0  0  0  0  0  0  0
   -8.8526   13.6448    0.0000 H   0  0  0  0  0  0  0  0  0  0  0  0
   -9.4037   12.1067    0.0000 H   0  0  0  0  0  0  0  0  0  0  0  0
   -9.2305   17.1184    0.0000 H   0  0  0  0  0  0  0  0  0  0  0  0
   -7.8046   14.9465    0.0000 H   0  0  0  0  0  0  0  0  0  0  0  0
  -13.9710   13.3407    0.0000 H   0  0  0  0  0  0  0  0  0  0  0  0
  -14.9740   13.1508    0.0000 H   0  0  0  0  0  0  0  0  0  0  0  0
  -17.8405   14.1137    0.0000 H   0  0  0  0  0  0  0  0  0  0  0  0
  -17.9802   12.3347    0.0000 H   0  0  0  0  0  0  0  0  0  0  0  0
  -15.0567   15.5795    0.0000 H   0  0  0  0  0  0  0  0  0  0  0  0
  -14.6888   13.9876    0.0000 H   0  0  0  0  0  0  0  0  0  0  0  0
  -17.2526   18.2974    0.0000 H   0  0  0  0  0  0  0  0  0  0  0  0
  -14.8789   17.2412    0.0000 H   0  0  0  0  0  0  0  0  0  0  0  0
  -19.1982   12.5565    0.0000 H   0  0  0  0  0  0  0  0  0  0  0  0
  -19.9393   11.8545    0.0000 H   0  0  0  0  0  0  0  0  0  0  0  0
  -22.8865   10.9322    0.0000 H   0  0  0  0  0  0  0  0  0  0  0  0
  -22.0271    9.5427    0.0000 H   0  0  0  0  0  0  0  0  0  0  0  0
  -21.3219   13.8529    0.0000 H   0  0  0  0  0  0  0  0  0  0  0  0
  -20.1518   12.7127    0.0000 H   0  0  0  0  0  0  0  0  0  0  0  0
  -24.5124   12.9587    0.0000 H   0  0  0  0  0  0  0  0  0  0  0  0
  -23.4828   11.5013    0.0000 H   0  0  0  0  0  0  0  0  0  0  0  0
  -22.0707   15.3470    0.0000 H   0  0  0  0  0  0  0  0  0  0  0  0
  -26.2644   16.9787    0.0000 H   0  0  0  0  0  0  0  0  0  0  0  0
  -23.6965   17.3735    0.0000 H   0  0  0  0  0  0  0  0  0  0  0  0
  -27.2065   14.5574    0.0000 H   0  0  0  0  0  0  0  0  0  0  0  0
  -25.5807   12.5309    0.0000 H   0  0  0  0  0  0  0  0  0  0  0  0
  -23.2761    8.9203    0.0000 H   0  0  0  0  0  0  0  0  0  0  0  0
  -23.5668    7.9762    0.0000 H   0  0  0  0  0  0  0  0  0  0  0  0
  -25.1101    7.6173    0.0000 H   0  0  0  0  0  0  0  0  0  0  0  0
  -25.4822    5.8720    0.0000 H   0  0  0  0  0  0  0  0  0  0  0  0
  -23.9220    5.0060    0.0000 H   0  0  0  0  0  0  0  0  0  0  0  0
  -24.6297    3.9902    0.0000 H   0  0  0  0  0  0  0  0  0  0  0  0
  -23.3548   -0.3018    0.0000 H   0  0  0  0  0  0  0  0  0  0  0  0
  -23.9898    0.7855    0.0000 H   0  0  0  0  0  0  0  0  0  0  0  0
  -22.5477   -1.6726    0.0000 H   0  0  0  0  0  0  0  0  0  0  0  0
  -23.2145   -0.8097    0.0000 H   0  0  0  0  0  0  0  0  0  0  0  0
  -21.1577   -3.0027    0.0000 H   0  0  0  0  0  0  0  0  0  0  0  0
  -22.2252   -2.0617    0.0000 H   0  0  0  0  0  0  0  0  0  0  0  0
  -20.4984   -3.7383    0.0000 H   0  0  0  0  0  0  0  0  0  0  0  0
  -25.7122    2.1851    0.0000 H   0  0  0  0  0  0  0  0  0  0  0  0
  -25.5288    3.8087    0.0000 H   0  0  0  0  0  0  0  0  0  0  0  0
  -23.9711    4.3016    0.0000 H   0  0  0  0  0  0  0  0  0  0  0  0
  -26.0170    3.1179    0.0000 H   0  0  0  0  0  0  0  0  0  0  0  0
  -25.3336   -0.2038    0.0000 H   0  0  0  0  0  0  0  0  0  0  0  0
  -27.3549   -2.1690    0.0000 H   0  0  0  0  0  0  0  0  0  0  0  0
  -25.7598   -1.0852    0.0000 H   0  0  0  0  0  0  0  0  0  0  0  0
  -30.1424   -0.3778    0.0000 H   0  0  0  0  0  0  0  0  0  0  0  0
  -29.2659    0.6024    0.0000 H   0  0  0  0  0  0  0  0  0  0  0  0
  -29.0639   -1.4634    0.0000 H   0  0  0  0  0  0  0  0  0  0  0  0
  -29.6995    1.7059    0.0000 H   0  0  0  0  0  0  0  0  0  0  0  0
  -33.2110    1.5523    0.0000 H   0  0  0  0  0  0  0  0  0  0  0  0
  -32.5414    0.0620    0.0000 H   0  0  0  0  0  0  0  0  0  0  0  0
  -30.0947    2.5855    0.0000 H   0  0  0  0  0  0  0  0  0  0  0  0
  -32.8248    5.1923    0.0000 H   0  0  0  0  0  0  0  0  0  0  0  0
  -34.2368    4.1012    0.0000 H   0  0  0  0  0  0  0  0  0  0  0  0
  -33.6062    2.4319    0.0000 H   0  0  0  0  0  0  0  0  0  0  0  0
  -31.6095    5.4997    0.0000 H   0  0  0  0  0  0  0  0  0  0  0  0
  -29.8485    5.2111    0.0000 H   0  0  0  0  0  0  0  0  0  0  0  0
  -29.7075    3.2879    0.0000 H   0  0  0  0  0  0  0  0  0  0  0  0
  1  2  1  0
  2  3  1  0
  3  4  2  0
  4  5  1  0
  5  6  2  0
  6  7  1  0
  7  8  2  0
  7  9  1  0
  9 10  1  0
 10 11  1  0
 11 12  2  0
  9 13  1  0
 13 14  1  0
 14 15  2  0
 15 16  1  0
 16 17  2  0
 17 18  1  0
 16 19  1  0
 14 20  1  0
 20 21  1  0
 21 22  2  0
 22 23  1  0
 23 24  2  0
 24 25  1  0
 25 26  2  0
 25 27  1  0
  1 28  2  0
  1 29  1  0
 29 30  1  0
 30 31  1  0
 31 32  1  0
 32 33  2  0
 32 34  1  0
 34 35  1  0
 35 36  1  0
 36 37  1  0
 36 38  1  0
 35 39  1  0
 39 40  2  0
 39 41  1  0
 41 42  1  0
 42 43  1  0
 43 44  1  0
 43 45  1  0
 45 46  1  0
 42 47  1  0
 47 48  2  0
 47 49  1  0
 49 50  1  0
 50 51  1  0
 51 52  1  0
 52 53  1  0
 52 54  1  0
 50 55  1  0
 55 56  2  0
 55 57  1  0
 57 58  1  0
 58 59  1  0
 59 60  1  0
 60 61  1  0
 61 62  1  0
 62 63  1  0
 58 64  1  0
 64 65  2  0
 64 66  1  0
 66 67  1  0
 67 68  1  0
 67 69  1  0
 69 70  2  0
 69 71  1  0
 71 72  1  0
 72 73  1  0
 73 74  1  0
 72 75  1  0
 75 76  2  0
 75 77  1  0
 77 78  1  0
 78 79  1  0
 79 80  1  0
 78 81  1  0
 81 82  2  0
 81 83  1  0
 83 84  1  0
 84 85  1  0
 85 86  1  0
 86 87  2  0
 86 88  1  0
 84 89  1  0
 89 90  2  0
 89 91  1  0
 91 92  1  0
 92 93  1  0
 93 94  1  0
 94 95  2  0
 95 96  1  0
 96 97  2  0
 97 98  1  0
 97 99  1  0
 99100  2  0
 92101  1  0
101102  2  0
101103  1  0
103104  1  0
104105  1  0
105106  1  0
105107  1  0
107108  1  0
104109  1  0
109110  2  0
109111  1  0
111112  1  0
112113  1  0
113114  1  0
114115  1  0
115116  1  0
116117  1  0
117118  2  3
117119  1  0
112120  1  0
120121  2  0
120122  1  0
122123  1  0
123124  1  0
124125  1  0
125126  1  0
126127  1  0
127128  1  0
123129  1  0
129130  2  0
129131  1  0
131132  1  0
132133  1  0
133134  1  0
134135  1  0
134136  1  0
132137  1  0
137138  2  0
137139  1  0
140139  1  6
140141  1  0
141142  1  0
142143  1  0
143144  1  0
144145  1  0
145146  1  0
146147  1  0
140148  1  0
140149  1  0
149150  2  0
149151  1  0
151152  1  0
152153  1  0
153154  1  0
154155  1  0
155156  1  0
156157  1  0
157158  2  3
157159  1  0
152160  1  0
160161  2  0
160162  1  0
162163  1  0
163164  1  0
164165  1  0
165166  1  0
166167  2  0
166168  1  0
163169  1  0
169170  2  0
169171  1  0
171172  1  0
172173  1  0
173174  1  0
174175  1  0
175176  1  0
175177  2  0
172178  1  0
178179  2  0
178180  1  0
180181  1  0
181182  1  0
182183  1  0
183184  1  0
184185  1  0
184186  2  0
181187  1  0
187188  2  0
187189  1  0
189190  1  0
190191  1  0
191192  1  0
192193  1  0
193194  1  0
194195  1  0
195196  2  3
195197  1  0
190198  1  0
198199  2  0
198200  1  0
200201  1  0
201202  1  0
201203  1  0
203204  2  0
203205  1  0
205206  1  0
206207  1  0
207208  1  0
208209  1  0
209210  1  0
206211  1  0
206212  1  1
212213  2  0
212214  1  0
214215  1  0
215216  1  0
216217  1  0
217218  1  0
218219  2  0
218220  1  0
215221  1  0
221222  2  0
221223  1  0
223224  1  0
224225  1  0
225226  1  0
226227  1  0
226228  1  0
224229  1  0
229230  2  0
229231  1  0
  8  3  1  0
100 94  1  0
 11  6  1  0
 18 13  2  0
147210  2  0
 22  9  1  0
 26 21  1  0
  2232  1  0
  4233  1  0
  5234  1  0
  8235  1  0
 15236  1  0
 17237  1  0
 18238  1  0
 19239  1  0
 23240  1  0
 24241  1  0
 26242  1  0
 27243  1  0
 29244  1  0
 30245  1  0
 30246  1  0
 31247  1  0
 31248  1  0
 34249  1  0
 35250  1  1
 36251  1  6
 37252  1  0
 38253  1  0
 38254  1  0
 38255  1  0
 41256  1  0
 42257  1  1
 43258  1  6
 44259  1  0
 44260  1  0
 44261  1  0
 45262  1  0
 45263  1  0
 46264  1  0
 46265  1  0
 46266  1  0
 49267  1  0
 50268  1  1
 51269  1  0
 51270  1  0
 52271  1  0
 53272  1  0
 53273  1  0
 53274  1  0
 54275  1  0
 54276  1  0
 54277  1  0
 57278  1  0
 58279  1  1
 59280  1  0
 59281  1  0
 60282  1  0
 60283  1  0
 61284  1  0
 61285  1  0
 62286  1  0
 62287  1  0
 63288  1  0
 63289  1  0
 63290  1  0
 66291  1  0
 67292  1  1
 68293  1  0
 68294  1  0
 68295  1  0
 71296  1  0
 72297  1  6
 73298  1  0
 73299  1  0
 74300  1  0
 77301  1  0
 78302  1  6
 79303  1  0
 79304  1  0
 80305  1  0
 80306  1  0
 80307  1  0
 83308  1  0
 84309  1  1
 85310  1  0
 85311  1  0
 91312  1  0
 92313  1  1
 93314  1  0
 93315  1  0
 95316  1  0
 96317  1  0
 98318  1  0
 99319  1  0
100320  1  0
103321  1  0
104322  1  1
105323  1  6
106324  1  0
106325  1  0
106326  1  0
107327  1  0
107328  1  0
108329  1  0
108330  1  0
108331  1  0
111332  1  0
112333  1  1
113334  1  0
113335  1  0
114336  1  0
114337  1  0
115338  1  0
115339  1  0
116340  1  0
118341  1  0
118342  1  0
119343  1  0
119344  1  0
122345  1  0
123346  1  1
124347  1  0
124348  1  0
125349  1  0
125350  1  0
126351  1  0
126352  1  0
127353  1  0
127354  1  0
128355  1  0
128356  1  0
128357  1  0
131358  1  0
132359  1  1
133360  1  0
133361  1  0
134362  1  0
135363  1  0
135364  1  0
135365  1  0
136366  1  0
136367  1  0
136368  1  0
139369  1  0
141370  1  0
141371  1  0
142372  1  0
142373  1  0
143374  1  0
143375  1  0
144376  1  0
144377  1  0
145378  1  0
145379  1  0
146380  1  0
146381  1  0
147382  1  0
148383  1  0
148384  1  0
148385  1  0
151386  1  0
152387  1  6
153388  1  0
153389  1  0
154390  1  0
154391  1  0
155392  1  0
155393  1  0
156394  1  0
158395  1  0
158396  1  0
159397  1  0
159398  1  0
162399  1  0
163400  1  6
164401  1  0
164402  1  0
165403  1  0
165404  1  0
171405  1  0
172406  1  6
173407  1  0
173408  1  0
174409  1  0
174410  1  0
176411  1  0
176412  1  0
180413  1  0
181414  1  6
182415  1  0
182416  1  0
183417  1  0
183418  1  0
185419  1  0
185420  1  0
189421  1  0
190422  1  6
191423  1  0
191424  1  0
192425  1  0
192426  1  0
193427  1  0
193428  1  0
194429  1  0
196430  1  0
196431  1  0
197432  1  0
197433  1  0
200434  1  0
201435  1  6
202436  1  0
202437  1  0
202438  1  0
205439  1  0
207440  1  0
207441  1  0
208442  1  0
208443  1  0
209444  1  0
209445  1  0
210446  1  0
211447  1  0
211448  1  0
211449  1  0
214450  1  0
215451  1  1
216452  1  0
216453  1  0
217454  1  0
217455  1  0
223456  1  0
224457  1  6
225458  1  0
225459  1  0
226460  1  0
227461  1  0
227462  1  0
227463  1  0
228464  1  0
228465  1  0
228466  1  0
M  CHG  8  63   1  88  -1 118   1 128   1 158   1 168  -1 196   1 220  -1
M  CHG  1 231  -1
M  END
