
     RDKit          2D

307314  0  0  0  0  0  0  0  0999 V2000
   19.8192   -3.1981    0.0000 C   0  0  0  0  0  0  0  0  0  0  0  0
   21.1495   -2.5051    0.0000 N   0  0  0  0  0  0  0  0  0  0  0  0
   22.4148   -3.3107    0.0000 C   0  0  0  0  0  0  0  0  0  0  0  0
   22.3498   -4.8093    0.0000 C   0  0  0  0  0  0  0  0  0  0  0  0
   23.6151   -5.6149    0.0000 C   0  0  0  0  0  0  0  0  0  0  0  0
   24.9454   -4.9220    0.0000 C   0  0  0  0  0  0  0  0  0  0  0  0
   25.0104   -3.4234    0.0000 C   0  0  0  0  0  0  0  0  0  0  0  0
   23.7451   -2.6178    0.0000 C   0  0  0  0  0  0  0  0  0  0  0  0
   26.4558   -3.0222    0.0000 C   0  0  0  0  0  0  0  0  0  0  0  0
   27.2840   -4.2728    0.0000 O   0  0  0  0  0  0  0  0  0  0  0  0
   26.3506   -5.4469    0.0000 C   0  0  0  0  0  0  0  0  0  0  0  0
   26.7518   -6.8923    0.0000 O   0  0  0  0  0  0  0  0  0  0  0  0
   27.9351   -2.7742    0.0000 C   0  0  0  0  0  0  0  0  0  0  0  0
   28.4601   -1.3690    0.0000 C   0  0  0  0  0  0  0  0  0  0  0  0
   29.9395   -1.1211    0.0000 C   0  0  0  0  0  0  0  0  0  0  0  0
   30.8939   -2.2783    0.0000 C   0  0  0  0  0  0  0  0  0  0  0  0
   30.3689   -3.6834    0.0000 C   0  0  0  0  0  0  0  0  0  0  0  0
   28.8896   -3.9314    0.0000 C   0  0  0  0  0  0  0  0  0  0  0  0
   32.3732   -2.0303    0.0000 O   0  0  0  0  0  0  0  0  0  0  0  0
   27.5057   -0.2119    0.0000 O   0  0  0  0  0  0  0  0  0  0  0  0
   26.0263   -0.4598    0.0000 C   0  0  0  0  0  0  0  0  0  0  0  0
   25.5014   -1.8650    0.0000 C   0  0  0  0  0  0  0  0  0  0  0  0
   24.2670   -1.4572    0.0000 C   0  0  0  0  0  0  0  0  0  0  0  0
   23.7580   -0.8400    0.0000 C   0  0  0  0  0  0  0  0  0  0  0  0
   24.0379   -0.0906    0.0000 C   0  0  0  0  0  0  0  0  0  0  0  0
   24.8269    0.0416    0.0000 C   0  0  0  0  0  0  0  0  0  0  0  0
   22.6381    1.6066    0.0000 O   0  0  0  0  0  0  0  0  0  0  0  0
   19.7541   -4.6967    0.0000 S   0  0  0  0  0  0  0  0  0  0  0  0
   18.5539   -2.3925    0.0000 N   0  0  0  0  0  0  0  0  0  0  0  0
   17.2235   -3.0854    0.0000 C   0  0  0  0  0  0  0  0  0  0  0  0
   15.9582   -2.2798    0.0000 C   0  0  0  0  0  0  0  0  0  0  0  0
   14.6279   -2.9728    0.0000 C   0  0  0  0  0  0  0  0  0  0  0  0
   14.7871   -3.7539    0.0000 O   0  0  0  0  0  0  0  0  0  0  0  0
   13.3626   -2.1672    0.0000 N   0  0  0  0  0  0  0  0  0  0  0  0
   12.0323   -2.8601    0.0000 C   0  0  0  0  0  0  0  0  0  0  0  0
   12.9457   -4.0499    0.0000 C   0  0  0  0  0  0  0  0  0  0  0  0
   14.4328   -3.8538    0.0000 C   0  0  0  0  0  0  0  0  0  0  0  0
   15.3463   -5.0436    0.0000 N   0  0  0  0  0  0  0  0  0  0  0  0
   15.3248   -2.6478    0.0000 O   0  0  0  0  0  0  0  0  0  0  0  0
   10.5452   -3.0563    0.0000 C   0  0  0  0  0  0  0  0  0  0  0  0
   10.3239   -4.5399    0.0000 O   0  0  0  0  0  0  0  0  0  0  0  0
    9.6317   -1.8665    0.0000 N   0  0  0  0  0  0  0  0  0  0  0  0
    8.1446   -2.0627    0.0000 C   0  0  0  0  0  0  0  0  0  0  0  0
    8.5960   -3.4932    0.0000 C   0  0  0  0  0  0  0  0  0  0  0  0
   10.0606   -3.8174    0.0000 C   0  0  0  0  0  0  0  0  0  0  0  0
   10.5120   -5.2479    0.0000 C   0  0  0  0  0  0  0  0  0  0  0  0
   11.9765   -5.5722    0.0000 C   0  0  0  0  0  0  0  0  0  0  0  0
   12.4280   -7.0026    0.0000 N   0  0  0  0  0  0  0  0  0  0  0  0
    6.6801   -1.7384    0.0000 C   0  0  0  0  0  0  0  0  0  0  0  0
    5.9647   -3.0569    0.0000 O   0  0  0  0  0  0  0  0  0  0  0  0
    6.2286   -0.3080    0.0000 N   0  0  0  0  0  0  0  0  0  0  0  0
    4.7641    0.0163    0.0000 C   0  0  0  0  0  0  0  0  0  0  0  0
    4.6991   -1.4823    0.0000 C   0  0  0  0  0  0  0  0  0  0  0  0
    5.9644   -2.2879    0.0000 C   0  0  0  0  0  0  0  0  0  0  0  0
    5.8993   -3.7865    0.0000 C   0  0  0  0  0  0  0  0  0  0  0  0
    7.4289   -2.6122    0.0000 C   0  0  0  0  0  0  0  0  0  0  0  0
    3.4988    0.8219    0.0000 C   0  0  0  0  0  0  0  0  0  0  0  0
    2.3757   -0.1724    0.0000 O   0  0  0  0  0  0  0  0  0  0  0  0
    3.5638    2.3205    0.0000 N   0  0  0  0  0  0  0  0  0  0  0  0
    2.2985    3.1261    0.0000 C   0  0  0  0  0  0  0  0  0  0  0  0
    2.1386    1.6347    0.0000 C   0  0  0  0  0  0  0  0  0  0  0  0
    1.6993    0.2005    0.0000 C   0  0  0  0  0  0  0  0  0  0  0  0
    0.9965   -1.1247    0.0000 C   0  0  0  0  0  0  0  0  0  0  0  0
    0.0556   -2.2929    0.0000 C   0  0  0  0  0  0  0  0  0  0  0  0
   -1.0894   -3.2619    0.0000 C   0  0  0  0  0  0  0  0  0  0  0  0
   -2.3971   -3.9968    0.0000 C   0  0  0  0  0  0  0  0  0  0  0  0
   -3.8202   -4.4708    0.0000 C   0  0  0  0  0  0  0  0  0  0  0  0
    3.5823    3.9021    0.0000 C   0  0  0  0  0  0  0  0  0  0  0  0
    2.1734    4.6209    0.0000 C   0  0  0  0  0  0  0  0  0  0  0  0
    3.6059    5.0656    0.0000 O   0  0  0  0  0  0  0  0  0  0  0  0
    1.7675    6.0650    0.0000 N   0  0  0  0  0  0  0  0  0  0  0  0
    1.0958    7.4061    0.0000 C   0  0  0  0  0  0  0  0  0  0  0  0
    1.7562    8.7529    0.0000 C   0  0  0  0  0  0  0  0  0  0  0  0
    3.2527    8.8544    0.0000 C   0  0  0  0  0  0  0  0  0  0  0  0
    3.9131   10.2012    0.0000 C   0  0  0  0  0  0  0  0  0  0  0  0
    5.4097   10.3026    0.0000 N   0  0  0  0  0  0  0  0  0  0  0  0
    6.0701   11.6494    0.0000 C   0  0  0  0  0  0  0  0  0  0  0  0
    7.5667   11.7509    0.0000 N   0  0  0  0  0  0  0  0  0  0  0  0
    5.2340   12.8948    0.0000 N   0  0  0  0  0  0  0  0  0  0  0  0
    0.1823    8.5959    0.0000 C   0  0  0  0  0  0  0  0  0  0  0  0
    1.1471    9.7445    0.0000 O   0  0  0  0  0  0  0  0  0  0  0  0
   -0.9398    9.5913    0.0000 N   0  0  0  0  0  0  0  0  0  0  0  0
   -2.2300   10.3564    0.0000 C   0  0  0  0  0  0  0  0  0  0  0  0
   -2.4026   11.8464    0.0000 C   0  0  0  0  0  0  0  0  0  0  0  0
   -1.1985   12.7409    0.0000 O   0  0  0  0  0  0  0  0  0  0  0  0
   -3.6417   10.8635    0.0000 C   0  0  0  0  0  0  0  0  0  0  0  0
   -3.4511   12.3513    0.0000 O   0  0  0  0  0  0  0  0  0  0  0  0
   -5.1239   11.0942    0.0000 N   0  0  0  0  0  0  0  0  0  0  0  0
   -6.6229   11.0403    0.0000 C   0  0  0  0  0  0  0  0  0  0  0  0
   -7.5737   12.2005    0.0000 C   0  0  0  0  0  0  0  0  0  0  0  0
   -7.0443   13.6039    0.0000 C   0  0  0  0  0  0  0  0  0  0  0  0
   -5.5641   13.8472    0.0000 C   0  0  0  0  0  0  0  0  0  0  0  0
   -5.0347   15.2507    0.0000 C   0  0  0  0  0  0  0  0  0  0  0  0
   -5.9855   16.4109    0.0000 C   0  0  0  0  0  0  0  0  0  0  0  0
   -7.4656   16.1676    0.0000 C   0  0  0  0  0  0  0  0  0  0  0  0
   -7.9950   14.7642    0.0000 C   0  0  0  0  0  0  0  0  0  0  0  0
   -8.0846   10.7036    0.0000 C   0  0  0  0  0  0  0  0  0  0  0  0
   -8.7287   12.0583    0.0000 O   0  0  0  0  0  0  0  0  0  0  0  0
   -9.4563   10.0964    0.0000 N   0  0  0  0  0  0  0  0  0  0  0  0
  -10.6882    9.2406    0.0000 C   0  0  0  0  0  0  0  0  0  0  0  0
  -12.1152    9.7026    0.0000 C   0  0  0  0  0  0  0  0  0  0  0  0
  -12.4286   11.1695    0.0000 C   0  0  0  0  0  0  0  0  0  0  0  0
  -11.3150   12.1744    0.0000 C   0  0  0  0  0  0  0  0  0  0  0  0
  -11.6284   13.6413    0.0000 C   0  0  0  0  0  0  0  0  0  0  0  0
  -13.0555   14.1033    0.0000 C   0  0  0  0  0  0  0  0  0  0  0  0
  -14.1691   13.0984    0.0000 C   0  0  0  0  0  0  0  0  0  0  0  0
  -13.8557   11.6315    0.0000 C   0  0  0  0  0  0  0  0  0  0  0  0
  -11.7358    8.1671    0.0000 C   0  0  0  0  0  0  0  0  0  0  0  0
  -13.0100    8.9586    0.0000 O   0  0  0  0  0  0  0  0  0  0  0  0
  -12.5614    6.9148    0.0000 N   0  0  0  0  0  0  0  0  0  0  0  0
  -13.1351    5.5288    0.0000 C   0  0  0  0  0  0  0  0  0  0  0  0
  -14.5854    5.1459    0.0000 C   0  0  0  0  0  0  0  0  0  0  0  0
  -13.4361    4.0593    0.0000 C   0  0  0  0  0  0  0  0  0  0  0  0
  -14.9359    4.0363    0.0000 O   0  0  0  0  0  0  0  0  0  0  0  0
  -13.4536    2.5594    0.0000 N   0  0  0  0  0  0  0  0  0  0  0  0
  -13.1868    1.0833    0.0000 C   0  0  0  0  0  0  0  0  0  0  0  0
  -14.1999   -0.0229    0.0000 C   0  0  0  0  0  0  0  0  0  0  0  0
  -15.6645    0.3014    0.0000 C   0  0  0  0  0  0  0  0  0  0  0  0
  -16.6776   -0.8048    0.0000 C   0  0  0  0  0  0  0  0  0  0  0  0
  -16.9298    1.1070    0.0000 C   0  0  0  0  0  0  0  0  0  0  0  0
  -12.6456   -0.3156    0.0000 C   0  0  0  0  0  0  0  0  0  0  0  0
  -13.8949   -1.1459    0.0000 O   0  0  0  0  0  0  0  0  0  0  0  0
  -11.8494   -1.5869    0.0000 N   0  0  0  0  0  0  0  0  0  0  0  0
  -10.8270   -2.6844    0.0000 C   0  0  0  0  0  0  0  0  0  0  0  0
   -9.6153   -3.5687    0.0000 C   0  0  0  0  0  0  0  0  0  0  0  0
   -8.2582   -4.2076    0.0000 C   0  0  0  0  0  0  0  0  0  0  0  0
   -6.8047   -4.5782    0.0000 C   0  0  0  0  0  0  0  0  0  0  0  0
   -5.3073   -4.6670    0.0000 C   0  0  0  0  0  0  0  0  0  0  0  0
  -12.2644   -3.1131    0.0000 C   0  0  0  0  0  0  0  0  0  0  0  0
  -11.0812   -4.1627    0.0000 C   0  0  0  0  0  0  0  0  0  0  0  0
  -10.1944   -5.3726    0.0000 O   0  0  0  0  0  0  0  0  0  0  0  0
  -12.4885   -4.6817    0.0000 N   0  0  0  0  0  0  0  0  0  0  0  0
  -12.7428   -6.1600    0.0000 C   0  0  0  0  0  0  0  0  0  0  0  0
  -12.4760   -7.6361    0.0000 C   0  0  0  0  0  0  0  0  0  0  0  0
  -13.6210   -8.6051    0.0000 C   0  0  0  0  0  0  0  0  0  0  0  0
  -13.3543  -10.0812    0.0000 O   0  0  0  0  0  0  0  0  0  0  0  0
  -15.1135   -8.4547    0.0000 O   0  0  0  0  0  0  0  0  0  0  0  0
  -14.1501   -6.6790    0.0000 C   0  0  0  0  0  0  0  0  0  0  0  0
  -15.3033   -5.7197    0.0000 O   0  0  0  0  0  0  0  0  0  0  0  0
  -14.4043   -8.1573    0.0000 N   0  0  0  0  0  0  0  0  0  0  0  0
  -15.8117   -8.6763    0.0000 C   0  0  0  0  0  0  0  0  0  0  0  0
  -17.3117   -8.6826    0.0000 C   0  0  0  0  0  0  0  0  0  0  0  0
  -18.0562   -9.9848    0.0000 C   0  0  0  0  0  0  0  0  0  0  0  0
  -19.5562   -9.9912    0.0000 C   0  0  0  0  0  0  0  0  0  0  0  0
  -20.4539  -11.1929    0.0000 N   0  0  0  0  0  0  0  0  0  0  0  0
  -20.3117   -8.6953    0.0000 O   0  0  0  0  0  0  0  0  0  0  0  0
  -16.0659  -10.1546    0.0000 C   0  0  0  0  0  0  0  0  0  0  0  0
  -14.9128  -11.1139    0.0000 O   0  0  0  0  0  0  0  0  0  0  0  0
  -17.4733  -10.6736    0.0000 N   0  0  0  0  0  0  0  0  0  0  0  0
  -17.7275  -12.1519    0.0000 C   0  0  0  0  0  0  0  0  0  0  0  0
  -17.4608  -13.6280    0.0000 C   0  0  0  0  0  0  0  0  0  0  0  0
  -18.6058  -14.5970    0.0000 C   0  0  0  0  0  0  0  0  0  0  0  0
  -16.7053  -14.9238    0.0000 C   0  0  0  0  0  0  0  0  0  0  0  0
  -15.2053  -14.9175    0.0000 C   0  0  0  0  0  0  0  0  0  0  0  0
  -19.1349  -12.6709    0.0000 C   0  0  0  0  0  0  0  0  0  0  0  0
  -19.5674  -14.1071    0.0000 O   0  0  0  0  0  0  0  0  0  0  0  0
  -20.3963  -11.8593    0.0000 O   0  0  0  0  0  0  0  0  0  0  0  0
   21.0314   -1.0098    0.0000 H   0  0  0  0  0  0  0  0  0  0  0  0
   21.0194   -5.5023    0.0000 H   0  0  0  0  0  0  0  0  0  0  0  0
   23.5500   -7.1135    0.0000 H   0  0  0  0  0  0  0  0  0  0  0  0
   23.4456   -1.1480    0.0000 H   0  0  0  0  0  0  0  0  0  0  0  0
   30.4644    0.2841    0.0000 H   0  0  0  0  0  0  0  0  0  0  0  0
   31.3234   -4.8406    0.0000 H   0  0  0  0  0  0  0  0  0  0  0  0
   28.3646   -5.3365    0.0000 H   0  0  0  0  0  0  0  0  0  0  0  0
   33.3277   -3.1875    0.0000 H   0  0  0  0  0  0  0  0  0  0  0  0
   23.4971   -3.5181    0.0000 H   0  0  0  0  0  0  0  0  0  0  0  0
   21.5690   -1.0215    0.0000 H   0  0  0  0  0  0  0  0  0  0  0  0
   25.5968    2.1025    0.0000 H   0  0  0  0  0  0  0  0  0  0  0  0
   23.1631    3.0117    0.0000 H   0  0  0  0  0  0  0  0  0  0  0  0
   18.6189   -0.8939    0.0000 H   0  0  0  0  0  0  0  0  0  0  0  0
   18.1370   -4.2752    0.0000 H   0  0  0  0  0  0  0  0  0  0  0  0
   16.3528   -4.3069    0.0000 H   0  0  0  0  0  0  0  0  0  0  0  0
   16.9713   -1.1736    0.0000 H   0  0  0  0  0  0  0  0  0  0  0  0
   15.0448   -1.0900    0.0000 H   0  0  0  0  0  0  0  0  0  0  0  0
   13.4277   -0.6686    0.0000 H   0  0  0  0  0  0  0  0  0  0  0  0
   11.5808   -1.4297    0.0000 H   0  0  0  0  0  0  0  0  0  0  0  0
   13.5682   -5.4147    0.0000 H   0  0  0  0  0  0  0  0  0  0  0  0
   11.5408   -4.5756    0.0000 H   0  0  0  0  0  0  0  0  0  0  0  0
   16.8462   -5.0301    0.0000 H   0  0  0  0  0  0  0  0  0  0  0  0
   14.7726   -6.4295    0.0000 H   0  0  0  0  0  0  0  0  0  0  0  0
   10.2054   -0.4806    0.0000 H   0  0  0  0  0  0  0  0  0  0  0  0
    8.3918   -0.5832    0.0000 H   0  0  0  0  0  0  0  0  0  0  0  0
    8.3488   -4.9727    0.0000 H   0  0  0  0  0  0  0  0  0  0  0  0
    7.2006   -4.0434    0.0000 H   0  0  0  0  0  0  0  0  0  0  0  0
   11.5127   -3.4415    0.0000 H   0  0  0  0  0  0  0  0  0  0  0  0
   10.4863   -2.3791    0.0000 H   0  0  0  0  0  0  0  0  0  0  0  0
   10.2648   -6.7274    0.0000 H   0  0  0  0  0  0  0  0  0  0  0  0
    9.0599   -5.6239    0.0000 H   0  0  0  0  0  0  0  0  0  0  0  0
   13.4765   -5.5587    0.0000 H   0  0  0  0  0  0  0  0  0  0  0  0
   12.0416   -4.0736    0.0000 H   0  0  0  0  0  0  0  0  0  0  0  0
   13.8925   -7.3269    0.0000 H   0  0  0  0  0  0  0  0  0  0  0  0
   12.3629   -8.5012    0.0000 H   0  0  0  0  0  0  0  0  0  0  0  0
   10.9758   -7.3786    0.0000 H   0  0  0  0  0  0  0  0  0  0  0  0
    7.2417    0.7982    0.0000 H   0  0  0  0  0  0  0  0  0  0  0  0
    5.3378    1.4023    0.0000 H   0  0  0  0  0  0  0  0  0  0  0  0
    3.9607   -2.7880    0.0000 H   0  0  0  0  0  0  0  0  0  0  0  0
    3.2345   -1.1580    0.0000 H   0  0  0  0  0  0  0  0  0  0  0  0
    6.8563   -1.0819    0.0000 H   0  0  0  0  0  0  0  0  0  0  0  0
    6.9321   -4.8743    0.0000 H   0  0  0  0  0  0  0  0  0  0  0  0
    5.3257   -5.1725    0.0000 H   0  0  0  0  0  0  0  0  0  0  0  0
    4.4062   -3.6432    0.0000 H   0  0  0  0  0  0  0  0  0  0  0  0
    7.8803   -4.0426    0.0000 H   0  0  0  0  0  0  0  0  0  0  0  0
    8.9193   -2.7817    0.0000 H   0  0  0  0  0  0  0  0  0  0  0  0
    7.3108   -1.1168    0.0000 H   0  0  0  0  0  0  0  0  0  0  0  0
    4.9687    2.8461    0.0000 H   0  0  0  0  0  0  0  0  0  0  0  0
    3.6297    1.7977    0.0000 H   0  0  0  0  0  0  0  0  0  0  0  0
    3.0948    0.4790    0.0000 H   0  0  0  0  0  0  0  0  0  0  0  0
    3.1683   -0.1030    0.0000 H   0  0  0  0  0  0  0  0  0  0  0  0
    2.5745   -1.0177    0.0000 H   0  0  0  0  0  0  0  0  0  0  0  0
    2.4959   -1.1660    0.0000 H   0  0  0  0  0  0  0  0  0  0  0  0
    1.7867   -2.3997    0.0000 H   0  0  0  0  0  0  0  0  0  0  0  0
    1.4696   -2.7933    0.0000 H   0  0  0  0  0  0  0  0  0  0  0  0
    0.5902   -3.6944    0.0000 H   0  0  0  0  0  0  0  0  0  0  0  0
    0.2044   -4.0209    0.0000 H   0  0  0  0  0  0  0  0  0  0  0  0
   -0.8297   -4.7393    0.0000 H   0  0  0  0  0  0  0  0  0  0  0  0
   -1.2703   -4.9869    0.0000 H   0  0  0  0  0  0  0  0  0  0  0  0
   -2.6043   -5.4824    0.0000 H   0  0  0  0  0  0  0  0  0  0  0  0
   -3.4836   -5.9326    0.0000 H   0  0  0  0  0  0  0  0  0  0  0  0
    4.9745    3.3439    0.0000 H   0  0  0  0  0  0  0  0  0  0  0  0
    4.6585    4.9469    0.0000 H   0  0  0  0  0  0  0  0  0  0  0  0
    2.8978    5.2368    0.0000 H   0  0  0  0  0  0  0  0  0  0  0  0
    3.2220    6.4316    0.0000 H   0  0  0  0  0  0  0  0  0  0  0  0
    2.5853    7.2296    0.0000 H   0  0  0  0  0  0  0  0  0  0  0  0
    1.9161   10.2444    0.0000 H   0  0  0  0  0  0  0  0  0  0  0  0
    0.4588    9.5057    0.0000 H   0  0  0  0  0  0  0  0  0  0  0  0
    4.6937    8.4379    0.0000 H   0  0  0  0  0  0  0  0  0  0  0  0
    3.4584    7.3685    0.0000 H   0  0  0  0  0  0  0  0  0  0  0  0
    4.0731   11.6926    0.0000 H   0  0  0  0  0  0  0  0  0  0  0  0
    2.5336   10.7902    0.0000 H   0  0  0  0  0  0  0  0  0  0  0  0
    6.2459    9.0573    0.0000 H   0  0  0  0  0  0  0  0  0  0  0  0
    8.2271   13.0977    0.0000 H   0  0  0  0  0  0  0  0  0  0  0  0
    8.4028   10.5056    0.0000 H   0  0  0  0  0  0  0  0  0  0  0  0
    5.8944   14.2416    0.0000 H   0  0  0  0  0  0  0  0  0  0  0  0
    3.7374   12.7933    0.0000 H   0  0  0  0  0  0  0  0  0  0  0  0
   -0.0556   10.8030    0.0000 H   0  0  0  0  0  0  0  0  0  0  0  0
   -0.9716   11.1727    0.0000 H   0  0  0  0  0  0  0  0  0  0  0  0
   -2.9059   13.2595    0.0000 H   0  0  0  0  0  0  0  0  0  0  0  0
   -3.9010   11.7783    0.0000 H   0  0  0  0  0  0  0  0  0  0  0  0
   -1.3710   14.2309    0.0000 H   0  0  0  0  0  0  0  0  0  0  0  0
   -4.8532   12.5696    0.0000 H   0  0  0  0  0  0  0  0  0  0  0  0
   -6.0056   12.4073    0.0000 H   0  0  0  0  0  0  0  0  0  0  0  0
   -8.7610   13.1171    0.0000 H   0  0  0  0  0  0  0  0  0  0  0  0
   -8.7974   11.3330    0.0000 H   0  0  0  0  0  0  0  0  0  0  0  0
   -4.4790   12.8115    0.0000 H   0  0  0  0  0  0  0  0  0  0  0  0
   -3.5546   15.4939    0.0000 H   0  0  0  0  0  0  0  0  0  0  0  0
   -5.4561   17.8144    0.0000 H   0  0  0  0  0  0  0  0  0  0  0  0
   -8.4163   17.3278    0.0000 H   0  0  0  0  0  0  0  0  0  0  0  0
   -9.4751   14.5209    0.0000 H   0  0  0  0  0  0  0  0  0  0  0  0
  -10.0262   11.4839    0.0000 H   0  0  0  0  0  0  0  0  0  0  0  0
  -10.9079   10.7244    0.0000 H   0  0  0  0  0  0  0  0  0  0  0  0
  -13.6097    9.8318    0.0000 H   0  0  0  0  0  0  0  0  0  0  0  0
  -12.6757    8.3113    0.0000 H   0  0  0  0  0  0  0  0  0  0  0  0
   -9.8422   11.8898    0.0000 H   0  0  0  0  0  0  0  0  0  0  0  0
  -10.5147   14.6462    0.0000 H   0  0  0  0  0  0  0  0  0  0  0  0
  -13.3689   15.5702    0.0000 H   0  0  0  0  0  0  0  0  0  0  0  0
  -15.5962   13.5605    0.0000 H   0  0  0  0  0  0  0  0  0  0  0  0
  -14.9694   10.6267    0.0000 H   0  0  0  0  0  0  0  0  0  0  0  0
  -13.8866    7.6176    0.0000 H   0  0  0  0  0  0  0  0  0  0  0  0
  -14.1222    6.6583    0.0000 H   0  0  0  0  0  0  0  0  0  0  0  0
  -15.6421    6.2105    0.0000 H   0  0  0  0  0  0  0  0  0  0  0  0
  -15.9125    4.4467    0.0000 H   0  0  0  0  0  0  0  0  0  0  0  0
  -14.3047    3.6724    0.0000 H   0  0  0  0  0  0  0  0  0  0  0  0
  -14.9524    2.6174    0.0000 H   0  0  0  0  0  0  0  0  0  0  0  0
  -14.5663    1.6724    0.0000 H   0  0  0  0  0  0  0  0  0  0  0  0
  -14.7736   -1.4088    0.0000 H   0  0  0  0  0  0  0  0  0  0  0  0
  -13.1672   -1.1107    0.0000 H   0  0  0  0  0  0  0  0  0  0  0  0
  -15.4432    1.7850    0.0000 H   0  0  0  0  0  0  0  0  0  0  0  0
  -18.1707   -0.6614    0.0000 H   0  0  0  0  0  0  0  0  0  0  0  0
  -17.2512   -2.1907    0.0000 H   0  0  0  0  0  0  0  0  0  0  0  0
  -15.5199   -1.7586    0.0000 H   0  0  0  0  0  0  0  0  0  0  0  0
  -18.3346    0.5814    0.0000 H   0  0  0  0  0  0  0  0  0  0  0  0
  -17.8432    2.2968    0.0000 H   0  0  0  0  0  0  0  0  0  0  0  0
  -15.9167    2.2132    0.0000 H   0  0  0  0  0  0  0  0  0  0  0  0
  -13.1416   -2.3485    0.0000 H   0  0  0  0  0  0  0  0  0  0  0  0
   -9.5852   -5.0684    0.0000 H   0  0  0  0  0  0  0  0  0  0  0  0
  -10.7384   -4.5630    0.0000 H   0  0  0  0  0  0  0  0  0  0  0  0
   -8.1259   -5.7018    0.0000 H   0  0  0  0  0  0  0  0  0  0  0  0
   -9.1729   -5.3965    0.0000 H   0  0  0  0  0  0  0  0  0  0  0  0
   -6.2193   -5.9593    0.0000 H   0  0  0  0  0  0  0  0  0  0  0  0
   -7.6362   -5.8267    0.0000 H   0  0  0  0  0  0  0  0  0  0  0  0
   -5.2534   -6.1661    0.0000 H   0  0  0  0  0  0  0  0  0  0  0  0
  -12.9546   -4.4449    0.0000 H   0  0  0  0  0  0  0  0  0  0  0  0
  -13.7618   -3.0243    0.0000 H   0  0  0  0  0  0  0  0  0  0  0  0
  -12.7924   -1.7091    0.0000 H   0  0  0  0  0  0  0  0  0  0  0  0
  -13.7500   -3.8701    0.0000 H   0  0  0  0  0  0  0  0  0  0  0  0
  -11.2428   -6.1537    0.0000 H   0  0  0  0  0  0  0  0  0  0  0  0
  -11.7206   -8.9320    0.0000 H   0  0  0  0  0  0  0  0  0  0  0  0
  -11.0687   -7.1171    0.0000 H   0  0  0  0  0  0  0  0  0  0  0  0
  -13.5176   -9.3671    0.0000 H   0  0  0  0  0  0  0  0  0  0  0  0
  -16.0784   -7.2002    0.0000 H   0  0  0  0  0  0  0  0  0  0  0  0
  -18.7234   -8.1756    0.0000 H   0  0  0  0  0  0  0  0  0  0  0  0
  -17.0575   -7.2043    0.0000 H   0  0  0  0  0  0  0  0  0  0  0  0
  -18.3104  -11.4631    0.0000 H   0  0  0  0  0  0  0  0  0  0  0  0
  -17.0479  -11.0954    0.0000 H   0  0  0  0  0  0  0  0  0  0  0  0
  -21.8007  -11.2997    0.0000 H   0  0  0  0  0  0  0  0  0  0  0  0
  -20.1061  -12.8221    0.0000 H   0  0  0  0  0  0  0  0  0  0  0  0
  -18.8243  -10.0218    0.0000 H   0  0  0  0  0  0  0  0  0  0  0  0
  -16.2275  -12.1455    0.0000 H   0  0  0  0  0  0  0  0  0  0  0  0
  -16.1272  -12.9413    0.0000 H   0  0  0  0  0  0  0  0  0  0  0  0
  -18.5210  -16.0946    0.0000 H   0  0  0  0  0  0  0  0  0  0  0  0
  -20.0131  -15.1160    0.0000 H   0  0  0  0  0  0  0  0  0  0  0  0
  -19.8813  -13.8076    0.0000 H   0  0  0  0  0  0  0  0  0  0  0  0
  -16.4386  -16.3999    0.0000 H   0  0  0  0  0  0  0  0  0  0  0  0
  -18.0389  -15.6105    0.0000 H   0  0  0  0  0  0  0  0  0  0  0  0
  -14.4498  -16.2133    0.0000 H   0  0  0  0  0  0  0  0  0  0  0  0
  -13.7980  -14.3985    0.0000 H   0  0  0  0  0  0  0  0  0  0  0  0
  -15.2901  -13.4199    0.0000 H   0  0  0  0  0  0  0  0  0  0  0  0
  1  2  1  0
  2  3  1  0
  3  4  2  0
  4  5  1  0
  5  6  2  0
  6  7  1  0
  7  8  2  0
  7  9  1  0
  9 10  1  0
 10 11  1  0
 11 12  2  0
  9 13  1  0
 13 14  1  0
 14 15  2  0
 15 16  1  0
 16 17  2  0
 17 18  1  0
 16 19  1  0
 14 20  1  0
 20 21  1  0
 21 22  2  0
 22 23  1  0
 23 24  2  0
 24 25  1  0
 25 26  2  0
 25 27  1  0
  1 28  2  0
  1 29  1  0
 29 30  1  0
 30 31  1  0
 31 32  1  0
 32 33  2  0
 32 34  1  0
 34 35  1  0
 35 36  1  0
 36 37  1  0
 37 38  1  0
 37 39  2  0
 35 40  1  0
 40 41  2  0
 40 42  1  0
 42 43  1  0
 43 44  1  0
 44 45  1  0
 45 46  1  0
 46 47  1  0
 47 48  1  0
 43 49  1  0
 49 50  2  0
 49 51  1  0
 51 52  1  0
 52 53  1  0
 53 54  1  0
 54 55  1  0
 54 56  1  0
 52 57  1  0
 57 58  2  0
 57 59  1  0
 60 59  1  6
 60 61  1  0
 61 62  1  0
 62 63  1  0
 63 64  1  0
 64 65  1  0
 65 66  1  0
 66 67  1  0
 60 68  1  0
 60 69  1  0
 69 70  2  0
 69 71  1  0
 71 72  1  0
 72 73  1  0
 73 74  1  0
 74 75  1  0
 75 76  1  0
 76 77  1  0
 77 78  2  3
 77 79  1  0
 72 80  1  0
 80 81  2  0
 80 82  1  0
 82 83  1  0
 83 84  1  0
 84 85  1  0
 83 86  1  0
 86 87  2  0
 86 88  1  0
 88 89  1  0
 89 90  1  0
 90 91  1  0
 91 92  2  0
 92 93  1  0
 93 94  2  0
 94 95  1  0
 95 96  2  0
 89 97  1  0
 97 98  2  0
 97 99  1  0
 99100  1  0
100101  1  0
101102  1  0
102103  2  0
103104  1  0
104105  2  0
105106  1  0
106107  2  0
100108  1  0
108109  2  0
108110  1  0
110111  1  0
111112  1  0
111113  1  0
113114  2  0
113115  1  0
115116  1  0
116117  1  0
117118  1  0
118119  1  0
118120  1  0
116121  1  0
121122  2  0
121123  1  0
123124  1  0
124125  1  0
125126  1  0
126127  1  0
127128  1  0
124129  1  0
124130  1  1
130131  2  0
130132  1  0
132133  1  0
133134  1  0
134135  1  0
135136  2  0
135137  1  0
133138  1  0
138139  2  0
138140  1  0
140141  1  0
141142  1  0
142143  1  0
143144  1  0
144145  1  0
144146  2  0
141147  1  0
147148  2  0
147149  1  0
149150  1  0
150151  1  0
151152  1  0
151153  1  0
153154  1  0
150155  1  0
155156  2  0
155157  1  0
  8  3  1  0
 96 91  1  0
107102  1  0
 11  6  1  0
 18 13  2  0
 67128  2  0
 22  9  1  0
 26 21  1  0
  2158  1  0
  4159  1  0
  5160  1  0
  8161  1  0
 15162  1  0
 17163  1  0
 18164  1  0
 19165  1  0
 23166  1  0
 24167  1  0
 26168  1  0
 27169  1  0
 29170  1  0
 30171  1  0
 30172  1  0
 31173  1  0
 31174  1  0
 34175  1  0
 35176  1  1
 36177  1  0
 36178  1  0
 38179  1  0
 38180  1  0
 42181  1  0
 43182  1  1
 44183  1  0
 44184  1  0
 45185  1  0
 45186  1  0
 46187  1  0
 46188  1  0
 47189  1  0
 47190  1  0
 48191  1  0
 48192  1  0
 48193  1  0
 51194  1  0
 52195  1  1
 53196  1  0
 53197  1  0
 54198  1  0
 55199  1  0
 55200  1  0
 55201  1  0
 56202  1  0
 56203  1  0
 56204  1  0
 59205  1  0
 61206  1  0
 61207  1  0
 62208  1  0
 62209  1  0
 63210  1  0
 63211  1  0
 64212  1  0
 64213  1  0
 65214  1  0
 65215  1  0
 66216  1  0
 66217  1  0
 67218  1  0
 68219  1  0
 68220  1  0
 68221  1  0
 71222  1  0
 72223  1  6
 73224  1  0
 73225  1  0
 74226  1  0
 74227  1  0
 75228  1  0
 75229  1  0
 76230  1  0
 78231  1  0
 78232  1  0
 79233  1  0
 79234  1  0
 82235  1  0
 83236  1  6
 84237  1  0
 84238  1  0
 85239  1  0
 88240  1  0
 89241  1  6
 90242  1  0
 90243  1  0
 92244  1  0
 93245  1  0
 94246  1  0
 95247  1  0
 96248  1  0
 99249  1  0
100250  1  6
101251  1  0
101252  1  0
103253  1  0
104254  1  0
105255  1  0
106256  1  0
107257  1  0
110258  1  0
111259  1  6
112260  1  0
112261  1  0
112262  1  0
115263  1  0
116264  1  6
117265  1  0
117266  1  0
118267  1  0
119268  1  0
119269  1  0
119270  1  0
120271  1  0
120272  1  0
120273  1  0
123274  1  0
125275  1  0
125276  1  0
126277  1  0
126278  1  0
127279  1  0
127280  1  0
128281  1  0
129282  1  0
129283  1  0
129284  1  0
132285  1  0
133286  1  1
134287  1  0
134288  1  0
140289  1  0
141290  1  6
142291  1  0
142292  1  0
143293  1  0
143294  1  0
145295  1  0
145296  1  0
149297  1  0
150298  1  1
151299  1  1
152300  1  0
152301  1  0
152302  1  0
153303  1  0
153304  1  0
154305  1  0
154306  1  0
154307  1  0
M  CHG  4  48   1  78   1 137  -1 157  -1
M  END
