
     RDKit          2D

300307  0  0  0  0  0  0  0  0999 V2000
   20.0555   -3.6163    0.0000 C   0  0  0  0  0  0  0  0  0  0  0  0
   21.3950   -2.9411    0.0000 N   0  0  0  0  0  0  0  0  0  0  0  0
   22.6494   -3.7636    0.0000 C   0  0  0  0  0  0  0  0  0  0  0  0
   22.5644   -5.2611    0.0000 C   0  0  0  0  0  0  0  0  0  0  0  0
   23.8188   -6.0836    0.0000 C   0  0  0  0  0  0  0  0  0  0  0  0
   25.1583   -5.4084    0.0000 C   0  0  0  0  0  0  0  0  0  0  0  0
   25.2433   -3.9108    0.0000 C   0  0  0  0  0  0  0  0  0  0  0  0
   23.9889   -3.0884    0.0000 C   0  0  0  0  0  0  0  0  0  0  0  0
   26.6939   -3.5289    0.0000 C   0  0  0  0  0  0  0  0  0  0  0  0
   27.5053   -4.7905    0.0000 O   0  0  0  0  0  0  0  0  0  0  0  0
   26.5563   -5.9521    0.0000 C   0  0  0  0  0  0  0  0  0  0  0  0
   26.9382   -7.4026    0.0000 O   0  0  0  0  0  0  0  0  0  0  0  0
   28.1764   -3.3007    0.0000 C   0  0  0  0  0  0  0  0  0  0  0  0
   28.7201   -1.9027    0.0000 C   0  0  0  0  0  0  0  0  0  0  0  0
   30.2026   -1.6745    0.0000 C   0  0  0  0  0  0  0  0  0  0  0  0
   31.1415   -2.8443    0.0000 C   0  0  0  0  0  0  0  0  0  0  0  0
   30.5978   -4.2424    0.0000 C   0  0  0  0  0  0  0  0  0  0  0  0
   29.1153   -4.4705    0.0000 C   0  0  0  0  0  0  0  0  0  0  0  0
   32.6240   -2.6161    0.0000 O   0  0  0  0  0  0  0  0  0  0  0  0
   27.7812   -0.7329    0.0000 O   0  0  0  0  0  0  0  0  0  0  0  0
   26.2986   -0.9611    0.0000 C   0  0  0  0  0  0  0  0  0  0  0  0
   25.7550   -2.3591    0.0000 C   0  0  0  0  0  0  0  0  0  0  0  0
   24.5261   -1.9349    0.0000 C   0  0  0  0  0  0  0  0  0  0  0  0
   24.0254   -1.3110    0.0000 C   0  0  0  0  0  0  0  0  0  0  0  0
   24.3153   -0.5654    0.0000 C   0  0  0  0  0  0  0  0  0  0  0  0
   25.1060   -0.4437    0.0000 C   0  0  0  0  0  0  0  0  0  0  0  0
   22.9383    1.1504    0.0000 O   0  0  0  0  0  0  0  0  0  0  0  0
   19.9705   -5.1139    0.0000 S   0  0  0  0  0  0  0  0  0  0  0  0
   18.8011   -2.7939    0.0000 N   0  0  0  0  0  0  0  0  0  0  0  0
   17.4616   -3.4690    0.0000 C   0  0  0  0  0  0  0  0  0  0  0  0
   16.2072   -2.6466    0.0000 C   0  0  0  0  0  0  0  0  0  0  0  0
   14.8677   -3.3217    0.0000 C   0  0  0  0  0  0  0  0  0  0  0  0
   15.0164   -4.1049    0.0000 O   0  0  0  0  0  0  0  0  0  0  0  0
   13.6133   -2.4993    0.0000 N   0  0  0  0  0  0  0  0  0  0  0  0
   12.2738   -3.1745    0.0000 C   0  0  0  0  0  0  0  0  0  0  0  0
   13.1713   -4.3763    0.0000 C   0  0  0  0  0  0  0  0  0  0  0  0
   14.6609   -4.2000    0.0000 C   0  0  0  0  0  0  0  0  0  0  0  0
   15.5584   -5.4019    0.0000 N   0  0  0  0  0  0  0  0  0  0  0  0
   15.5689   -3.0061    0.0000 O   0  0  0  0  0  0  0  0  0  0  0  0
   10.7842   -3.3508    0.0000 C   0  0  0  0  0  0  0  0  0  0  0  0
   10.5432   -4.8313    0.0000 O   0  0  0  0  0  0  0  0  0  0  0  0
    9.8867   -2.1489    0.0000 N   0  0  0  0  0  0  0  0  0  0  0  0
    8.3971   -2.3252    0.0000 C   0  0  0  0  0  0  0  0  0  0  0  0
    8.8294   -3.7616    0.0000 C   0  0  0  0  0  0  0  0  0  0  0  0
   10.2895   -4.1054    0.0000 C   0  0  0  0  0  0  0  0  0  0  0  0
   10.7218   -5.5417    0.0000 C   0  0  0  0  0  0  0  0  0  0  0  0
   12.1291   -6.0609    0.0000 O   0  0  0  0  0  0  0  0  0  0  0  0
    9.6940   -6.6343    0.0000 O   0  0  0  0  0  0  0  0  0  0  0  0
    6.9370   -1.9814    0.0000 C   0  0  0  0  0  0  0  0  0  0  0  0
    6.2042   -3.2902    0.0000 O   0  0  0  0  0  0  0  0  0  0  0  0
    6.5047   -0.5451    0.0000 N   0  0  0  0  0  0  0  0  0  0  0  0
    5.0447   -0.2013    0.0000 C   0  0  0  0  0  0  0  0  0  0  0  0
    4.9596   -1.6989    0.0000 C   0  0  0  0  0  0  0  0  0  0  0  0
    6.2141   -2.5213    0.0000 C   0  0  0  0  0  0  0  0  0  0  0  0
    6.1290   -4.0189    0.0000 C   0  0  0  0  0  0  0  0  0  0  0  0
    7.6741   -2.8651    0.0000 C   0  0  0  0  0  0  0  0  0  0  0  0
    3.7902    0.6211    0.0000 C   0  0  0  0  0  0  0  0  0  0  0  0
    2.6539   -0.3581    0.0000 O   0  0  0  0  0  0  0  0  0  0  0  0
    3.8753    2.1187    0.0000 N   0  0  0  0  0  0  0  0  0  0  0  0
    2.6208    2.9412    0.0000 C   0  0  0  0  0  0  0  0  0  0  0  0
    2.4410    1.4520    0.0000 C   0  0  0  0  0  0  0  0  0  0  0  0
    1.9826    0.0238    0.0000 C   0  0  0  0  0  0  0  0  0  0  0  0
    1.2621   -1.2919    0.0000 C   0  0  0  0  0  0  0  0  0  0  0  0
    0.3057   -2.4475    0.0000 C   0  0  0  0  0  0  0  0  0  0  0  0
   -0.8521   -3.4011    0.0000 C   0  0  0  0  0  0  0  0  0  0  0  0
   -2.1695   -4.1184    0.0000 C   0  0  0  0  0  0  0  0  0  0  0  0
   -3.5988   -4.5735    0.0000 C   0  0  0  0  0  0  0  0  0  0  0  0
    3.9148    3.6999    0.0000 C   0  0  0  0  0  0  0  0  0  0  0  0
    2.5156    4.4375    0.0000 C   0  0  0  0  0  0  0  0  0  0  0  0
    3.9540    4.8630    0.0000 O   0  0  0  0  0  0  0  0  0  0  0  0
    2.1291    5.8868    0.0000 N   0  0  0  0  0  0  0  0  0  0  0  0
    1.4753    7.2368    0.0000 C   0  0  0  0  0  0  0  0  0  0  0  0
    2.1536    8.5747    0.0000 C   0  0  0  0  0  0  0  0  0  0  0  0
    3.6514    8.6562    0.0000 C   0  0  0  0  0  0  0  0  0  0  0  0
    4.3297    9.9940    0.0000 C   0  0  0  0  0  0  0  0  0  0  0  0
    5.8275   10.0755    0.0000 N   0  0  0  0  0  0  0  0  0  0  0  0
    6.5058   11.4134    0.0000 C   0  0  0  0  0  0  0  0  0  0  0  0
    8.0036   11.4949    0.0000 N   0  0  0  0  0  0  0  0  0  0  0  0
    5.6863   12.6698    0.0000 N   0  0  0  0  0  0  0  0  0  0  0  0
    0.5778    8.4387    0.0000 C   0  0  0  0  0  0  0  0  0  0  0  0
    1.5578    9.5743    0.0000 O   0  0  0  0  0  0  0  0  0  0  0  0
   -0.5310    9.4490    0.0000 N   0  0  0  0  0  0  0  0  0  0  0  0
   -1.8109   10.2312    0.0000 C   0  0  0  0  0  0  0  0  0  0  0  0
   -1.9635   11.7234    0.0000 C   0  0  0  0  0  0  0  0  0  0  0  0
   -0.7476   12.6017    0.0000 O   0  0  0  0  0  0  0  0  0  0  0  0
   -3.2157   10.7571    0.0000 C   0  0  0  0  0  0  0  0  0  0  0  0
   -3.0052   12.2422    0.0000 O   0  0  0  0  0  0  0  0  0  0  0  0
   -4.6946   11.0076    0.0000 N   0  0  0  0  0  0  0  0  0  0  0  0
   -6.1942   10.9737    0.0000 C   0  0  0  0  0  0  0  0  0  0  0  0
   -7.1294   12.1464    0.0000 C   0  0  0  0  0  0  0  0  0  0  0  0
   -6.5813   13.5427    0.0000 C   0  0  0  0  0  0  0  0  0  0  0  0
   -5.0981   13.7662    0.0000 C   0  0  0  0  0  0  0  0  0  0  0  0
   -4.5500   15.1625    0.0000 C   0  0  0  0  0  0  0  0  0  0  0  0
   -5.4852   16.3353    0.0000 C   0  0  0  0  0  0  0  0  0  0  0  0
   -6.9684   16.1118    0.0000 C   0  0  0  0  0  0  0  0  0  0  0  0
   -7.5165   14.7155    0.0000 C   0  0  0  0  0  0  0  0  0  0  0  0
   -7.6603   10.6565    0.0000 C   0  0  0  0  0  0  0  0  0  0  0  0
   -8.2862   12.0197    0.0000 O   0  0  0  0  0  0  0  0  0  0  0  0
   -9.0399   10.0677    0.0000 N   0  0  0  0  0  0  0  0  0  0  0  0
  -10.2831    9.2284    0.0000 C   0  0  0  0  0  0  0  0  0  0  0  0
  -11.7039    9.7094    0.0000 C   0  0  0  0  0  0  0  0  0  0  0  0
  -11.9977   11.1804    0.0000 C   0  0  0  0  0  0  0  0  0  0  0  0
  -10.8708   12.1703    0.0000 C   0  0  0  0  0  0  0  0  0  0  0  0
  -11.1646   13.6412    0.0000 C   0  0  0  0  0  0  0  0  0  0  0  0
  -12.5853   14.1223    0.0000 C   0  0  0  0  0  0  0  0  0  0  0  0
  -13.7123   13.1323    0.0000 C   0  0  0  0  0  0  0  0  0  0  0  0
  -13.4185   11.6614    0.0000 C   0  0  0  0  0  0  0  0  0  0  0  0
  -11.3450    8.1690    0.0000 C   0  0  0  0  0  0  0  0  0  0  0  0
  -12.6086    8.9774    0.0000 O   0  0  0  0  0  0  0  0  0  0  0  0
  -12.1873    6.9278    0.0000 N   0  0  0  0  0  0  0  0  0  0  0  0
  -12.7794    5.5496    0.0000 C   0  0  0  0  0  0  0  0  0  0  0  0
  -14.2347    5.1861    0.0000 C   0  0  0  0  0  0  0  0  0  0  0  0
  -13.1000    4.0842    0.0000 C   0  0  0  0  0  0  0  0  0  0  0  0
  -14.6000    4.0812    0.0000 O   0  0  0  0  0  0  0  0  0  0  0  0
  -13.1374    2.5847    0.0000 N   0  0  0  0  0  0  0  0  0  0  0  0
  -12.8904    1.1052    0.0000 C   0  0  0  0  0  0  0  0  0  0  0  0
  -13.9182    0.0126    0.0000 C   0  0  0  0  0  0  0  0  0  0  0  0
  -15.3783    0.3564    0.0000 C   0  0  0  0  0  0  0  0  0  0  0  0
  -16.4060   -0.7361    0.0000 C   0  0  0  0  0  0  0  0  0  0  0  0
  -16.6327    1.1788    0.0000 C   0  0  0  0  0  0  0  0  0  0  0  0
  -12.3679   -0.3009    0.0000 C   0  0  0  0  0  0  0  0  0  0  0  0
  -13.6282   -1.1144    0.0000 O   0  0  0  0  0  0  0  0  0  0  0  0
  -11.5887   -1.5826    0.0000 N   0  0  0  0  0  0  0  0  0  0  0  0
  -10.5810   -2.6937    0.0000 C   0  0  0  0  0  0  0  0  0  0  0  0
   -9.3813   -3.5941    0.0000 C   0  0  0  0  0  0  0  0  0  0  0  0
   -8.0328   -4.2511    0.0000 C   0  0  0  0  0  0  0  0  0  0  0  0
   -6.5844   -4.6410    0.0000 C   0  0  0  0  0  0  0  0  0  0  0  0
   -5.0884   -4.7498    0.0000 C   0  0  0  0  0  0  0  0  0  0  0  0
  -12.0241   -3.1032    0.0000 C   0  0  0  0  0  0  0  0  0  0  0  0
  -10.8550   -4.1685    0.0000 C   0  0  0  0  0  0  0  0  0  0  0  0
   -9.9845   -5.3901    0.0000 O   0  0  0  0  0  0  0  0  0  0  0  0
  -12.2691   -4.6687    0.0000 N   0  0  0  0  0  0  0  0  0  0  0  0
  -12.5431   -6.1434    0.0000 C   0  0  0  0  0  0  0  0  0  0  0  0
  -12.2961   -7.6230    0.0000 C   0  0  0  0  0  0  0  0  0  0  0  0
  -13.4539   -8.5766    0.0000 C   0  0  0  0  0  0  0  0  0  0  0  0
  -13.2069  -10.0561    0.0000 O   0  0  0  0  0  0  0  0  0  0  0  0
  -14.9442   -8.4063    0.0000 O   0  0  0  0  0  0  0  0  0  0  0  0
  -13.9572   -6.6436    0.0000 C   0  0  0  0  0  0  0  0  0  0  0  0
  -15.0974   -5.6690    0.0000 O   0  0  0  0  0  0  0  0  0  0  0  0
  -14.2311   -8.1184    0.0000 N   0  0  0  0  0  0  0  0  0  0  0  0
  -15.6453   -8.6185    0.0000 C   0  0  0  0  0  0  0  0  0  0  0  0
  -17.1452   -8.6049    0.0000 C   0  0  0  0  0  0  0  0  0  0  0  0
  -17.9071   -9.8970    0.0000 C   0  0  0  0  0  0  0  0  0  0  0  0
  -19.4070   -9.8833    0.0000 C   0  0  0  0  0  0  0  0  0  0  0  0
  -20.3206  -11.0730    0.0000 N   0  0  0  0  0  0  0  0  0  0  0  0
  -20.1451   -8.5775    0.0000 O   0  0  0  0  0  0  0  0  0  0  0  0
  -15.9192  -10.0933    0.0000 C   0  0  0  0  0  0  0  0  0  0  0  0
  -14.7790  -11.0679    0.0000 O   0  0  0  0  0  0  0  0  0  0  0  0
  -17.3334  -10.5935    0.0000 N   0  0  0  0  0  0  0  0  0  0  0  0
  -17.6073  -12.0682    0.0000 C   0  0  0  0  0  0  0  0  0  0  0  0
  -17.3603  -13.5478    0.0000 C   0  0  0  0  0  0  0  0  0  0  0  0
  -18.5181  -14.5014    0.0000 C   0  0  0  0  0  0  0  0  0  0  0  0
  -16.6222  -14.8536    0.0000 C   0  0  0  0  0  0  0  0  0  0  0  0
  -15.1223  -14.8673    0.0000 C   0  0  0  0  0  0  0  0  0  0  0  0
  -19.0215  -12.5684    0.0000 C   0  0  0  0  0  0  0  0  0  0  0  0
  -19.4731  -13.9988    0.0000 O   0  0  0  0  0  0  0  0  0  0  0  0
  -20.2720  -11.7400    0.0000 O   0  0  0  0  0  0  0  0  0  0  0  0
   21.2968   -1.4443    0.0000 H   0  0  0  0  0  0  0  0  0  0  0  0
   21.2249   -5.9363    0.0000 H   0  0  0  0  0  0  0  0  0  0  0  0
   23.7338   -7.5812    0.0000 H   0  0  0  0  0  0  0  0  0  0  0  0
   23.7090   -1.6147    0.0000 H   0  0  0  0  0  0  0  0  0  0  0  0
   30.7462   -0.2765    0.0000 H   0  0  0  0  0  0  0  0  0  0  0  0
   31.5367   -5.4122    0.0000 H   0  0  0  0  0  0  0  0  0  0  0  0
   28.5717   -5.8686    0.0000 H   0  0  0  0  0  0  0  0  0  0  0  0
   33.5629   -3.7860    0.0000 H   0  0  0  0  0  0  0  0  0  0  0  0
   23.7288   -3.9853    0.0000 H   0  0  0  0  0  0  0  0  0  0  0  0
   21.8342   -1.4633    0.0000 H   0  0  0  0  0  0  0  0  0  0  0  0
   25.9034    1.6067    0.0000 H   0  0  0  0  0  0  0  0  0  0  0  0
   23.4819    2.5484    0.0000 H   0  0  0  0  0  0  0  0  0  0  0  0
   18.8861   -1.2963    0.0000 H   0  0  0  0  0  0  0  0  0  0  0  0
   18.3591   -4.6709    0.0000 H   0  0  0  0  0  0  0  0  0  0  0  0
   16.5747   -4.6787    0.0000 H   0  0  0  0  0  0  0  0  0  0  0  0
   17.2349   -1.5540    0.0000 H   0  0  0  0  0  0  0  0  0  0  0  0
   15.3097   -1.4447    0.0000 H   0  0  0  0  0  0  0  0  0  0  0  0
   13.6983   -1.0017    0.0000 H   0  0  0  0  0  0  0  0  0  0  0  0
   11.8415   -1.7381    0.0000 H   0  0  0  0  0  0  0  0  0  0  0  0
   13.6036   -5.8127    0.0000 H   0  0  0  0  0  0  0  0  0  0  0  0
   11.9241   -5.2097    0.0000 H   0  0  0  0  0  0  0  0  0  0  0  0
   17.0584   -5.4085    0.0000 H   0  0  0  0  0  0  0  0  0  0  0  0
   14.9663   -6.7801    0.0000 H   0  0  0  0  0  0  0  0  0  0  0  0
   10.4788   -0.7707    0.0000 H   0  0  0  0  0  0  0  0  0  0  0  0
    8.6641   -0.8492    0.0000 H   0  0  0  0  0  0  0  0  0  0  0  0
    8.7444   -5.2592    0.0000 H   0  0  0  0  0  0  0  0  0  0  0  0
    7.4267   -4.2931    0.0000 H   0  0  0  0  0  0  0  0  0  0  0  0
   11.7791   -3.9290    0.0000 H   0  0  0  0  0  0  0  0  0  0  0  0
   10.7344   -2.6729    0.0000 H   0  0  0  0  0  0  0  0  0  0  0  0
    7.5325    0.5475    0.0000 H   0  0  0  0  0  0  0  0  0  0  0  0
    5.6368    1.1769    0.0000 H   0  0  0  0  0  0  0  0  0  0  0  0
    4.2039   -2.9946    0.0000 H   0  0  0  0  0  0  0  0  0  0  0  0
    3.4996   -1.3551    0.0000 H   0  0  0  0  0  0  0  0  0  0  0  0
    7.1221   -1.3273    0.0000 H   0  0  0  0  0  0  0  0  0  0  0  0
    7.1472   -5.1204    0.0000 H   0  0  0  0  0  0  0  0  0  0  0  0
    5.5369   -5.3971    0.0000 H   0  0  0  0  0  0  0  0  0  0  0  0
    4.6379   -3.8556    0.0000 H   0  0  0  0  0  0  0  0  0  0  0  0
    8.1064   -4.3014    0.0000 H   0  0  0  0  0  0  0  0  0  0  0  0
    9.1621   -3.0545    0.0000 H   0  0  0  0  0  0  0  0  0  0  0  0
    7.5760   -1.3683    0.0000 H   0  0  0  0  0  0  0  0  0  0  0  0
    5.2870    2.6256    0.0000 H   0  0  0  0  0  0  0  0  0  0  0  0
    3.9341    1.5951    0.0000 H   0  0  0  0  0  0  0  0  0  0  0  0
    3.3817    0.2836    0.0000 H   0  0  0  0  0  0  0  0  0  0  0  0
    3.4474   -0.2993    0.0000 H   0  0  0  0  0  0  0  0  0  0  0  0
    2.8415   -1.2060    0.0000 H   0  0  0  0  0  0  0  0  0  0  0  0
    2.7609   -1.3532    0.0000 H   0  0  0  0  0  0  0  0  0  0  0  0
    2.0352   -2.5773    0.0000 H   0  0  0  0  0  0  0  0  0  0  0  0
    1.7130   -2.9667    0.0000 H   0  0  0  0  0  0  0  0  0  0  0  0
    0.8216   -3.8560    0.0000 H   0  0  0  0  0  0  0  0  0  0  0  0
    0.4315   -4.1773    0.0000 H   0  0  0  0  0  0  0  0  0  0  0  0
   -0.6121   -4.8818    0.0000 H   0  0  0  0  0  0  0  0  0  0  0  0
   -1.0559   -5.1235    0.0000 H   0  0  0  0  0  0  0  0  0  0  0  0
   -2.3964   -5.6012    0.0000 H   0  0  0  0  0  0  0  0  0  0  0  0
   -3.2817   -6.0396    0.0000 H   0  0  0  0  0  0  0  0  0  0  0  0
    5.2995    3.1232    0.0000 H   0  0  0  0  0  0  0  0  0  0  0  0
    5.0049    4.7303    0.0000 H   0  0  0  0  0  0  0  0  0  0  0  0
    3.2482    5.0437    0.0000 H   0  0  0  0  0  0  0  0  0  0  0  0
    3.5883    6.2341    0.0000 H   0  0  0  0  0  0  0  0  0  0  0  0
    2.9623    7.0404    0.0000 H   0  0  0  0  0  0  0  0  0  0  0  0
    2.3334   10.0639    0.0000 H   0  0  0  0  0  0  0  0  0  0  0  0
    0.8663    9.3448    0.0000 H   0  0  0  0  0  0  0  0  0  0  0  0
    5.0867    8.2205    0.0000 H   0  0  0  0  0  0  0  0  0  0  0  0
    3.8372    7.1677    0.0000 H   0  0  0  0  0  0  0  0  0  0  0  0
    4.5095   11.4832    0.0000 H   0  0  0  0  0  0  0  0  0  0  0  0
    2.9582   10.6015    0.0000 H   0  0  0  0  0  0  0  0  0  0  0  0
    6.6469    8.8191    0.0000 H   0  0  0  0  0  0  0  0  0  0  0  0
    8.6819   12.8327    0.0000 H   0  0  0  0  0  0  0  0  0  0  0  0
    8.8230   10.2385    0.0000 H   0  0  0  0  0  0  0  0  0  0  0  0
    6.3647   14.0076    0.0000 H   0  0  0  0  0  0  0  0  0  0  0  0
    4.1886   12.5883    0.0000 H   0  0  0  0  0  0  0  0  0  0  0  0
    0.3694   10.6488    0.0000 H   0  0  0  0  0  0  0  0  0  0  0  0
   -0.5417   11.0306    0.0000 H   0  0  0  0  0  0  0  0  0  0  0  0
   -2.4479   13.1431    0.0000 H   0  0  0  0  0  0  0  0  0  0  0  0
   -3.4628   11.6753    0.0000 H   0  0  0  0  0  0  0  0  0  0  0  0
   -0.9002   14.0940    0.0000 H   0  0  0  0  0  0  0  0  0  0  0  0
   -4.4043   12.4792    0.0000 H   0  0  0  0  0  0  0  0  0  0  0  0
   -5.5587   12.3324    0.0000 H   0  0  0  0  0  0  0  0  0  0  0  0
   -8.3044   13.0788    0.0000 H   0  0  0  0  0  0  0  0  0  0  0  0
   -8.3646   11.2954    0.0000 H   0  0  0  0  0  0  0  0  0  0  0  0
   -4.0269   12.7162    0.0000 H   0  0  0  0  0  0  0  0  0  0  0  0
   -3.0667   15.3860    0.0000 H   0  0  0  0  0  0  0  0  0  0  0  0
   -4.9371   17.7316    0.0000 H   0  0  0  0  0  0  0  0  0  0  0  0
   -7.9036   17.2846    0.0000 H   0  0  0  0  0  0  0  0  0  0  0  0
   -8.9998   14.4920    0.0000 H   0  0  0  0  0  0  0  0  0  0  0  0
   -9.5913   11.4627    0.0000 H   0  0  0  0  0  0  0  0  0  0  0  0
  -10.4831   10.7150    0.0000 H   0  0  0  0  0  0  0  0  0  0  0  0
  -13.1965    9.8586    0.0000 H   0  0  0  0  0  0  0  0  0  0  0  0
  -12.2829    8.3257    0.0000 H   0  0  0  0  0  0  0  0  0  0  0  0
   -9.4019   11.8660    0.0000 H   0  0  0  0  0  0  0  0  0  0  0  0
  -10.0376   14.6312    0.0000 H   0  0  0  0  0  0  0  0  0  0  0  0
  -12.8792   15.5932    0.0000 H   0  0  0  0  0  0  0  0  0  0  0  0
  -15.1331   13.6134    0.0000 H   0  0  0  0  0  0  0  0  0  0  0  0
  -14.5455   10.6715    0.0000 H   0  0  0  0  0  0  0  0  0  0  0  0
  -13.5029    7.6482    0.0000 H   0  0  0  0  0  0  0  0  0  0  0  0
  -13.7513    6.6921    0.0000 H   0  0  0  0  0  0  0  0  0  0  0  0
  -15.2771    6.2647    0.0000 H   0  0  0  0  0  0  0  0  0  0  0  0
  -15.5709    4.5046    0.0000 H   0  0  0  0  0  0  0  0  0  0  0  0
  -13.9737    3.7090    0.0000 H   0  0  0  0  0  0  0  0  0  0  0  0
  -14.6354    2.6627    0.0000 H   0  0  0  0  0  0  0  0  0  0  0  0
  -14.2620    1.7126    0.0000 H   0  0  0  0  0  0  0  0  0  0  0  0
  -14.5103   -1.3656    0.0000 H   0  0  0  0  0  0  0  0  0  0  0  0
  -12.9001   -1.0889    0.0000 H   0  0  0  0  0  0  0  0  0  0  0  0
  -15.1373    1.8369    0.0000 H   0  0  0  0  0  0  0  0  0  0  0  0
  -17.8971   -0.5729    0.0000 H   0  0  0  0  0  0  0  0  0  0  0  0
  -16.9982   -2.1143    0.0000 H   0  0  0  0  0  0  0  0  0  0  0  0
  -15.2612   -1.7054    0.0000 H   0  0  0  0  0  0  0  0  0  0  0  0
  -18.0445    0.6720    0.0000 H   0  0  0  0  0  0  0  0  0  0  0  0
  -17.5302    2.3807    0.0000 H   0  0  0  0  0  0  0  0  0  0  0  0
  -15.6049    2.2714    0.0000 H   0  0  0  0  0  0  0  0  0  0  0  0
  -12.8910   -2.3269    0.0000 H   0  0  0  0  0  0  0  0  0  0  0  0
   -9.3712   -5.0940    0.0000 H   0  0  0  0  0  0  0  0  0  0  0  0
  -10.5176   -4.5733    0.0000 H   0  0  0  0  0  0  0  0  0  0  0  0
   -7.9205   -5.7469    0.0000 H   0  0  0  0  0  0  0  0  0  0  0  0
   -8.9633   -5.4276    0.0000 H   0  0  0  0  0  0  0  0  0  0  0  0
   -6.0175   -6.0298    0.0000 H   0  0  0  0  0  0  0  0  0  0  0  0
   -7.4325   -5.8782    0.0000 H   0  0  0  0  0  0  0  0  0  0  0  0
   -5.0544   -6.2494    0.0000 H   0  0  0  0  0  0  0  0  0  0  0  0
  -12.7320   -4.4256    0.0000 H   0  0  0  0  0  0  0  0  0  0  0  0
  -13.5201   -2.9944    0.0000 H   0  0  0  0  0  0  0  0  0  0  0  0
  -12.5333   -1.6923    0.0000 H   0  0  0  0  0  0  0  0  0  0  0  0
  -13.5197   -3.8403    0.0000 H   0  0  0  0  0  0  0  0  0  0  0  0
  -11.0431   -6.1571    0.0000 H   0  0  0  0  0  0  0  0  0  0  0  0
  -11.5579   -8.9288    0.0000 H   0  0  0  0  0  0  0  0  0  0  0  0
  -10.8819   -7.1228    0.0000 H   0  0  0  0  0  0  0  0  0  0  0  0
  -13.3606   -9.3399    0.0000 H   0  0  0  0  0  0  0  0  0  0  0  0
  -15.8923   -7.1390    0.0000 H   0  0  0  0  0  0  0  0  0  0  0  0
  -18.5500   -8.0790    0.0000 H   0  0  0  0  0  0  0  0  0  0  0  0
  -16.8713   -7.1301    0.0000 H   0  0  0  0  0  0  0  0  0  0  0  0
  -18.1810  -11.3718    0.0000 H   0  0  0  0  0  0  0  0  0  0  0  0
  -16.9137  -11.0209    0.0000 H   0  0  0  0  0  0  0  0  0  0  0  0
  -21.6687  -11.1618    0.0000 H   0  0  0  0  0  0  0  0  0  0  0  0
  -19.9946  -12.7067    0.0000 H   0  0  0  0  0  0  0  0  0  0  0  0
  -18.6756   -9.9237    0.0000 H   0  0  0  0  0  0  0  0  0  0  0  0
  -16.1074  -12.0819    0.0000 H   0  0  0  0  0  0  0  0  0  0  0  0
  -16.0177  -12.8790    0.0000 H   0  0  0  0  0  0  0  0  0  0  0  0
  -18.4533  -16.0000    0.0000 H   0  0  0  0  0  0  0  0  0  0  0  0
  -19.9323  -15.0016    0.0000 H   0  0  0  0  0  0  0  0  0  0  0  0
  -19.7830  -13.6951    0.0000 H   0  0  0  0  0  0  0  0  0  0  0  0
  -16.3752  -16.3331    0.0000 H   0  0  0  0  0  0  0  0  0  0  0  0
  -17.9648  -15.5224    0.0000 H   0  0  0  0  0  0  0  0  0  0  0  0
  -14.3841  -16.1731    0.0000 H   0  0  0  0  0  0  0  0  0  0  0  0
  -13.7081  -14.3671    0.0000 H   0  0  0  0  0  0  0  0  0  0  0  0
  -15.1871  -13.3687    0.0000 H   0  0  0  0  0  0  0  0  0  0  0  0
  1  2  1  0
  2  3  1  0
  3  4  2  0
  4  5  1  0
  5  6  2  0
  6  7  1  0
  7  8  2  0
  7  9  1  0
  9 10  1  0
 10 11  1  0
 11 12  2  0
  9 13  1  0
 13 14  1  0
 14 15  2  0
 15 16  1  0
 16 17  2  0
 17 18  1  0
 16 19  1  0
 14 20  1  0
 20 21  1  0
 21 22  2  0
 22 23  1  0
 23 24  2  0
 24 25  1  0
 25 26  2  0
 25 27  1  0
  1 28  2  0
  1 29  1  0
 29 30  1  0
 30 31  1  0
 31 32  1  0
 32 33  2  0
 32 34  1  0
 34 35  1  0
 35 36  1  0
 36 37  1  0
 37 38  1  0
 37 39  2  0
 35 40  1  0
 40 41  2  0
 40 42  1  0
 42 43  1  0
 43 44  1  0
 44 45  1  0
 45 46  1  0
 46 47  2  0
 46 48  1  0
 43 49  1  0
 49 50  2  0
 49 51  1  0
 51 52  1  0
 52 53  1  0
 53 54  1  0
 54 55  1  0
 54 56  1  0
 52 57  1  0
 57 58  2  0
 57 59  1  0
 60 59  1  6
 60 61  1  0
 61 62  1  0
 62 63  1  0
 63 64  1  0
 64 65  1  0
 65 66  1  0
 66 67  1  0
 60 68  1  0
 60 69  1  0
 69 70  2  0
 69 71  1  0
 71 72  1  0
 72 73  1  0
 73 74  1  0
 74 75  1  0
 75 76  1  0
 76 77  1  0
 77 78  2  3
 77 79  1  0
 72 80  1  0
 80 81  2  0
 80 82  1  0
 82 83  1  0
 83 84  1  0
 84 85  1  0
 83 86  1  0
 86 87  2  0
 86 88  1  0
 88 89  1  0
 89 90  1  0
 90 91  1  0
 91 92  2  0
 92 93  1  0
 93 94  2  0
 94 95  1  0
 95 96  2  0
 89 97  1  0
 97 98  2  0
 97 99  1  0
 99100  1  0
100101  1  0
101102  1  0
102103  2  0
103104  1  0
104105  2  0
105106  1  0
106107  2  0
100108  1  0
108109  2  0
108110  1  0
110111  1  0
111112  1  0
111113  1  0
113114  2  0
113115  1  0
115116  1  0
116117  1  0
117118  1  0
118119  1  0
118120  1  0
116121  1  0
121122  2  0
121123  1  0
123124  1  0
124125  1  0
125126  1  0
126127  1  0
127128  1  0
124129  1  0
124130  1  1
130131  2  0
130132  1  0
132133  1  0
133134  1  0
134135  1  0
135136  2  0
135137  1  0
133138  1  0
138139  2  0
138140  1  0
140141  1  0
141142  1  0
142143  1  0
143144  1  0
144145  1  0
144146  2  0
141147  1  0
147148  2  0
147149  1  0
149150  1  0
150151  1  0
151152  1  0
151153  1  0
153154  1  0
150155  1  0
155156  2  0
155157  1  0
  8  3  1  0
 96 91  1  0
107102  1  0
 11  6  1  0
 18 13  2  0
 67128  2  0
 22  9  1  0
 26 21  1  0
  2158  1  0
  4159  1  0
  5160  1  0
  8161  1  0
 15162  1  0
 17163  1  0
 18164  1  0
 19165  1  0
 23166  1  0
 24167  1  0
 26168  1  0
 27169  1  0
 29170  1  0
 30171  1  0
 30172  1  0
 31173  1  0
 31174  1  0
 34175  1  0
 35176  1  1
 36177  1  0
 36178  1  0
 38179  1  0
 38180  1  0
 42181  1  0
 43182  1  1
 44183  1  0
 44184  1  0
 45185  1  0
 45186  1  0
 51187  1  0
 52188  1  1
 53189  1  0
 53190  1  0
 54191  1  0
 55192  1  0
 55193  1  0
 55194  1  0
 56195  1  0
 56196  1  0
 56197  1  0
 59198  1  0
 61199  1  0
 61200  1  0
 62201  1  0
 62202  1  0
 63203  1  0
 63204  1  0
 64205  1  0
 64206  1  0
 65207  1  0
 65208  1  0
 66209  1  0
 66210  1  0
 67211  1  0
 68212  1  0
 68213  1  0
 68214  1  0
 71215  1  0
 72216  1  6
 73217  1  0
 73218  1  0
 74219  1  0
 74220  1  0
 75221  1  0
 75222  1  0
 76223  1  0
 78224  1  0
 78225  1  0
 79226  1  0
 79227  1  0
 82228  1  0
 83229  1  6
 84230  1  0
 84231  1  0
 85232  1  0
 88233  1  0
 89234  1  6
 90235  1  0
 90236  1  0
 92237  1  0
 93238  1  0
 94239  1  0
 95240  1  0
 96241  1  0
 99242  1  0
100243  1  6
101244  1  0
101245  1  0
103246  1  0
104247  1  0
105248  1  0
106249  1  0
107250  1  0
110251  1  0
111252  1  6
112253  1  0
112254  1  0
112255  1  0
115256  1  0
116257  1  6
117258  1  0
117259  1  0
118260  1  0
119261  1  0
119262  1  0
119263  1  0
120264  1  0
120265  1  0
120266  1  0
123267  1  0
125268  1  0
125269  1  0
126270  1  0
126271  1  0
127272  1  0
127273  1  0
128274  1  0
129275  1  0
129276  1  0
129277  1  0
132278  1  0
133279  1  1
134280  1  0
134281  1  0
140282  1  0
141283  1  6
142284  1  0
142285  1  0
143286  1  0
143287  1  0
145288  1  0
145289  1  0
149290  1  0
150291  1  1
151292  1  1
152293  1  0
152294  1  0
152295  1  0
153296  1  0
153297  1  0
154298  1  0
154299  1  0
154300  1  0
M  CHG  4  48  -1  78   1 137  -1 157  -1
M  END
