
     RDKit          2D

353360  0  0  0  0  0  0  0  0999 V2000
  -28.7474    0.0321    0.0000 C   0  0  0  0  0  0  0  0  0  0  0  0
  -29.9996   -0.7936    0.0000 N   0  0  0  0  0  0  0  0  0  0  0  0
  -31.3409   -0.1220    0.0000 C   0  0  0  0  0  0  0  0  0  0  0  0
  -31.4299    1.3753    0.0000 C   0  0  0  0  0  0  0  0  0  0  0  0
  -32.7711    2.0469    0.0000 C   0  0  0  0  0  0  0  0  0  0  0  0
  -34.0234    1.2212    0.0000 C   0  0  0  0  0  0  0  0  0  0  0  0
  -33.9344   -0.2762    0.0000 C   0  0  0  0  0  0  0  0  0  0  0  0
  -32.5931   -0.9478    0.0000 C   0  0  0  0  0  0  0  0  0  0  0  0
  -35.3309   -0.8235    0.0000 C   0  0  0  0  0  0  0  0  0  0  0  0
  -36.2831    0.3356    0.0000 O   0  0  0  0  0  0  0  0  0  0  0  0
  -35.4749    1.5993    0.0000 C   0  0  0  0  0  0  0  0  0  0  0  0
  -36.0223    2.9958    0.0000 O   0  0  0  0  0  0  0  0  0  0  0  0
  -36.7771   -1.2219    0.0000 C   0  0  0  0  0  0  0  0  0  0  0  0
  -37.1551   -2.6734    0.0000 C   0  0  0  0  0  0  0  0  0  0  0  0
  -38.6013   -3.0718    0.0000 C   0  0  0  0  0  0  0  0  0  0  0  0
  -39.6693   -2.0186    0.0000 C   0  0  0  0  0  0  0  0  0  0  0  0
  -39.2913   -0.5670    0.0000 C   0  0  0  0  0  0  0  0  0  0  0  0
  -37.8451   -0.1687    0.0000 C   0  0  0  0  0  0  0  0  0  0  0  0
  -41.1155   -2.4170    0.0000 O   0  0  0  0  0  0  0  0  0  0  0  0
  -36.0871   -3.7266    0.0000 O   0  0  0  0  0  0  0  0  0  0  0  0
  -34.6409   -3.3283    0.0000 C   0  0  0  0  0  0  0  0  0  0  0  0
  -34.2629   -1.8767    0.0000 C   0  0  0  0  0  0  0  0  0  0  0  0
  -32.9932   -2.1557    0.0000 C   0  0  0  0  0  0  0  0  0  0  0  0
  -32.4235   -2.7175    0.0000 C   0  0  0  0  0  0  0  0  0  0  0  0
  -32.6252   -3.4916    0.0000 C   0  0  0  0  0  0  0  0  0  0  0  0
  -33.3965   -3.7041    0.0000 C   0  0  0  0  0  0  0  0  0  0  0  0
  -31.0587   -5.0363    0.0000 O   0  0  0  0  0  0  0  0  0  0  0  0
  -28.8364    1.5295    0.0000 S   0  0  0  0  0  0  0  0  0  0  0  0
  -27.4061   -0.6395    0.0000 N   0  0  0  0  0  0  0  0  0  0  0  0
  -26.1539    0.1863    0.0000 C   0  0  0  0  0  0  0  0  0  0  0  0
  -24.8126   -0.4853    0.0000 C   0  0  0  0  0  0  0  0  0  0  0  0
  -23.5604    0.3404    0.0000 C   0  0  0  0  0  0  0  0  0  0  0  0
  -23.6494    1.8378    0.0000 O   0  0  0  0  0  0  0  0  0  0  0  0
  -22.2191   -0.3312    0.0000 N   0  0  0  0  0  0  0  0  0  0  0  0
  -20.9669    0.4945    0.0000 C   0  0  0  0  0  0  0  0  0  0  0  0
  -20.0726    1.6988    0.0000 C   0  0  0  0  0  0  0  0  0  0  0  0
  -18.5825    1.5264    0.0000 C   0  0  0  0  0  0  0  0  0  0  0  0
  -17.6882    2.7307    0.0000 C   0  0  0  0  0  0  0  0  0  0  0  0
  -16.4732    2.7392    0.0000 O   0  0  0  0  0  0  0  0  0  0  0  0
  -18.2839    4.1073    0.0000 O   0  0  0  0  0  0  0  0  0  0  0  0
  -19.6256   -0.1771    0.0000 C   0  0  0  0  0  0  0  0  0  0  0  0
  -19.5366   -1.6744    0.0000 O   0  0  0  0  0  0  0  0  0  0  0  0
  -18.3734    0.6487    0.0000 N   0  0  0  0  0  0  0  0  0  0  0  0
  -17.0321   -0.0229    0.0000 C   0  0  0  0  0  0  0  0  0  0  0  0
  -16.0015   -1.1128    0.0000 C   0  0  0  0  0  0  0  0  0  0  0  0
  -16.4300   -2.5503    0.0000 C   0  0  0  0  0  0  0  0  0  0  0  0
  -15.3993   -3.6401    0.0000 C   0  0  0  0  0  0  0  0  0  0  0  0
  -15.8278   -5.0776    0.0000 N   0  0  0  0  0  0  0  0  0  0  0  0
  -14.7972   -6.1674    0.0000 C   0  0  0  0  0  0  0  0  0  0  0  0
  -15.2257   -7.6049    0.0000 N   0  0  0  0  0  0  0  0  0  0  0  0
  -13.3380   -5.8198    0.0000 N   0  0  0  0  0  0  0  0  0  0  0  0
  -15.7799    0.8028    0.0000 C   0  0  0  0  0  0  0  0  0  0  0  0
  -15.7036    2.0154    0.0000 O   0  0  0  0  0  0  0  0  0  0  0  0
  -14.4386    0.1312    0.0000 N   0  0  0  0  0  0  0  0  0  0  0  0
  -13.1864    0.9570    0.0000 C   0  0  0  0  0  0  0  0  0  0  0  0
  -12.2921    2.1612    0.0000 C   0  0  0  0  0  0  0  0  0  0  0  0
  -10.8020    1.9888    0.0000 C   0  0  0  0  0  0  0  0  0  0  0  0
   -9.9077    3.1931    0.0000 C   0  0  0  0  0  0  0  0  0  0  0  0
   -9.4608    1.3172    0.0000 C   0  0  0  0  0  0  0  0  0  0  0  0
  -11.8451    0.2854    0.0000 C   0  0  0  0  0  0  0  0  0  0  0  0
  -11.7561   -1.2120    0.0000 O   0  0  0  0  0  0  0  0  0  0  0  0
  -10.5929    1.1111    0.0000 N   0  0  0  0  0  0  0  0  0  0  0  0
   -9.2516    0.4395    0.0000 C   0  0  0  0  0  0  0  0  0  0  0  0
   -8.2210   -0.6503    0.0000 C   0  0  0  0  0  0  0  0  0  0  0  0
   -8.6495   -2.0878    0.0000 C   0  0  0  0  0  0  0  0  0  0  0  0
   -7.6188   -3.1777    0.0000 C   0  0  0  0  0  0  0  0  0  0  0  0
   -8.0473   -4.6152    0.0000 N   0  0  0  0  0  0  0  0  0  0  0  0
   -7.0167   -5.7050    0.0000 C   0  0  0  0  0  0  0  0  0  0  0  0
   -7.4452   -7.1425    0.0000 N   0  0  0  0  0  0  0  0  0  0  0  0
   -5.5575   -5.3573    0.0000 N   0  0  0  0  0  0  0  0  0  0  0  0
   -7.9994    1.2653    0.0000 C   0  0  0  0  0  0  0  0  0  0  0  0
   -7.9052    2.7623    0.0000 O   0  0  0  0  0  0  0  0  0  0  0  0
   -6.6581    0.5936    0.0000 N   0  0  0  0  0  0  0  0  0  0  0  0
   -5.4059    1.4194    0.0000 C   0  0  0  0  0  0  0  0  0  0  0  0
   -4.5116    2.6236    0.0000 C   0  0  0  0  0  0  0  0  0  0  0  0
   -3.0215    2.4513    0.0000 C   0  0  0  0  0  0  0  0  0  0  0  0
   -2.1272    3.6555    0.0000 C   0  0  0  0  0  0  0  0  0  0  0  0
   -0.6371    3.4831    0.0000 N   0  0  0  0  0  0  0  0  0  0  0  0
    0.2572    4.6874    0.0000 C   0  0  0  0  0  0  0  0  0  0  0  0
    1.7151    4.3347    0.0000 N   0  0  0  0  0  0  0  0  0  0  0  0
   -0.3386    6.0640    0.0000 N   0  0  0  0  0  0  0  0  0  0  0  0
   -4.0646    0.7478    0.0000 C   0  0  0  0  0  0  0  0  0  0  0  0
   -3.9756   -0.7496    0.0000 O   0  0  0  0  0  0  0  0  0  0  0  0
   -2.8124    1.5735    0.0000 N   0  0  0  0  0  0  0  0  0  0  0  0
   -1.4711    0.9019    0.0000 C   0  0  0  0  0  0  0  0  0  0  0  0
   -0.4405   -0.1879    0.0000 C   0  0  0  0  0  0  0  0  0  0  0  0
   -0.8690   -1.6254    0.0000 C   0  0  0  0  0  0  0  0  0  0  0  0
    0.1617   -2.7152    0.0000 C   0  0  0  0  0  0  0  0  0  0  0  0
   -0.2668   -4.1527    0.0000 N   0  0  0  0  0  0  0  0  0  0  0  0
    0.7638   -5.2426    0.0000 C   0  0  0  0  0  0  0  0  0  0  0  0
    0.3353   -6.6801    0.0000 N   0  0  0  0  0  0  0  0  0  0  0  0
    2.2230   -4.8949    0.0000 N   0  0  0  0  0  0  0  0  0  0  0  0
   -0.2189    1.7277    0.0000 C   0  0  0  0  0  0  0  0  0  0  0  0
   -0.0177    2.8025    0.0000 O   0  0  0  0  0  0  0  0  0  0  0  0
    1.1224    1.0561    0.0000 N   0  0  0  0  0  0  0  0  0  0  0  0
    2.3746    1.8818    0.0000 C   0  0  0  0  0  0  0  0  0  0  0  0
    3.2689    3.0861    0.0000 C   0  0  0  0  0  0  0  0  0  0  0  0
    4.7590    2.9137    0.0000 C   0  0  0  0  0  0  0  0  0  0  0  0
    5.6533    4.1179    0.0000 C   0  0  0  0  0  0  0  0  0  0  0  0
    7.1408    4.3112    0.0000 C   0  0  0  0  0  0  0  0  0  0  0  0
    3.7159    1.2102    0.0000 C   0  0  0  0  0  0  0  0  0  0  0  0
    3.6217   -0.2868    0.0000 O   0  0  0  0  0  0  0  0  0  0  0  0
    4.9681    2.0360    0.0000 N   0  0  0  0  0  0  0  0  0  0  0  0
    6.3094    1.3644    0.0000 C   0  0  0  0  0  0  0  0  0  0  0  0
    6.6933   -0.0857    0.0000 C   0  0  0  0  0  0  0  0  0  0  0  0
    7.4876   -1.3581    0.0000 C   0  0  0  0  0  0  0  0  0  0  0  0
    8.6216   -2.3399    0.0000 C   0  0  0  0  0  0  0  0  0  0  0  0
    9.9947   -2.9439    0.0000 C   0  0  0  0  0  0  0  0  0  0  0  0
    5.0389    0.5669    0.0000 C   0  0  0  0  0  0  0  0  0  0  0  0
    6.3699    2.8631    0.0000 C   0  0  0  0  0  0  0  0  0  0  0  0
    5.6931    3.2843    0.0000 O   0  0  0  0  0  0  0  0  0  0  0  0
    6.8695    4.2775    0.0000 N   0  0  0  0  0  0  0  0  0  0  0  0
    7.7638    5.4817    0.0000 C   0  0  0  0  0  0  0  0  0  0  0  0
    7.4527    6.9491    0.0000 C   0  0  0  0  0  0  0  0  0  0  0  0
    6.0263    7.4133    0.0000 C   0  0  0  0  0  0  0  0  0  0  0  0
    5.7151    8.8807    0.0000 C   0  0  0  0  0  0  0  0  0  0  0  0
    4.5272    7.3617    0.0000 C   0  0  0  0  0  0  0  0  0  0  0  0
    8.9734    6.3689    0.0000 C   0  0  0  0  0  0  0  0  0  0  0  0
    8.2764    7.6971    0.0000 O   0  0  0  0  0  0  0  0  0  0  0  0
   10.3907    6.8601    0.0000 N   0  0  0  0  0  0  0  0  0  0  0  0
   11.8898    6.9117    0.0000 C   0  0  0  0  0  0  0  0  0  0  0  0
   12.8430    8.0699    0.0000 C   0  0  0  0  0  0  0  0  0  0  0  0
   12.3166    9.4745    0.0000 S   0  0  0  0  0  0  0  0  0  0  0  0
   13.3375    6.5192    0.0000 C   0  0  0  0  0  0  0  0  0  0  0  0
   13.9414    7.8922    0.0000 O   0  0  0  0  0  0  0  0  0  0  0  0
   14.6052    5.7174    0.0000 N   0  0  0  0  0  0  0  0  0  0  0  0
   15.5803    4.5775    0.0000 C   0  0  0  0  0  0  0  0  0  0  0  0
   17.0801    4.5544    0.0000 C   0  0  0  0  0  0  0  0  0  0  0  0
   17.8501    5.8417    0.0000 C   0  0  0  0  0  0  0  0  0  0  0  0
   19.3499    5.8185    0.0000 C   0  0  0  0  0  0  0  0  0  0  0  0
   20.1198    7.1058    0.0000 N   0  0  0  0  0  0  0  0  0  0  0  0
   21.6197    7.0827    0.0000 C   0  0  0  0  0  0  0  0  0  0  0  0
   22.3896    8.3700    0.0000 N   0  0  0  0  0  0  0  0  0  0  0  0
   22.3495    5.7722    0.0000 N   0  0  0  0  0  0  0  0  0  0  0  0
   16.1760    3.2009    0.0000 C   0  0  0  0  0  0  0  0  0  0  0  0
   17.6261    3.5848    0.0000 O   0  0  0  0  0  0  0  0  0  0  0  0
   16.3395    1.7098    0.0000 N   0  0  0  0  0  0  0  0  0  0  0  0
   16.0563    0.2368    0.0000 C   0  0  0  0  0  0  0  0  0  0  0  0
   15.3515   -1.0873    0.0000 C   0  0  0  0  0  0  0  0  0  0  0  0
   14.2877   -2.1448    0.0000 C   0  0  0  0  0  0  0  0  0  0  0  0
   12.9594   -2.8417    0.0000 C   0  0  0  0  0  0  0  0  0  0  0  0
   11.4847   -3.1162    0.0000 C   0  0  0  0  0  0  0  0  0  0  0  0
   17.5155    0.5845    0.0000 C   0  0  0  0  0  0  0  0  0  0  0  0
   16.9733   -0.9502    0.0000 C   0  0  0  0  0  0  0  0  0  0  0  0
   16.7565   -2.4345    0.0000 O   0  0  0  0  0  0  0  0  0  0  0  0
   18.4598   -0.7496    0.0000 N   0  0  0  0  0  0  0  0  0  0  0  0
   19.3769   -1.9366    0.0000 C   0  0  0  0  0  0  0  0  0  0  0  0
   19.8326   -3.3657    0.0000 C   0  0  0  0  0  0  0  0  0  0  0  0
   18.8228   -4.4749    0.0000 C   0  0  0  0  0  0  0  0  0  0  0  0
   19.1267   -5.9438    0.0000 C   0  0  0  0  0  0  0  0  0  0  0  0
   17.8236   -6.6867    0.0000 N   0  0  0  0  0  0  0  0  0  0  0  0
   16.7143   -5.6770    0.0000 C   0  0  0  0  0  0  0  0  0  0  0  0
   17.3319   -4.3100    0.0000 N   0  0  0  0  0  0  0  0  0  0  0  0
   20.8634   -1.7360    0.0000 C   0  0  0  0  0  0  0  0  0  0  0  0
   21.4329   -0.3483    0.0000 O   0  0  0  0  0  0  0  0  0  0  0  0
   21.7804   -2.9230    0.0000 N   0  0  0  0  0  0  0  0  0  0  0  0
   23.2669   -2.7224    0.0000 C   0  0  0  0  0  0  0  0  0  0  0  0
   24.5952   -2.0254    0.0000 C   0  0  0  0  0  0  0  0  0  0  0  0
   25.8629   -2.8272    0.0000 C   0  0  0  0  0  0  0  0  0  0  0  0
   27.2567   -2.2729    0.0000 C   0  0  0  0  0  0  0  0  0  0  0  0
   28.2146   -3.4273    0.0000 N   0  0  0  0  0  0  0  0  0  0  0  0
   27.4128   -4.6950    0.0000 C   0  0  0  0  0  0  0  0  0  0  0  0
   25.9593   -4.3241    0.0000 N   0  0  0  0  0  0  0  0  0  0  0  0
   24.1839   -3.9094    0.0000 C   0  0  0  0  0  0  0  0  0  0  0  0
   23.6144   -5.2971    0.0000 O   0  0  0  0  0  0  0  0  0  0  0  0
   25.6705   -3.7088    0.0000 N   0  0  0  0  0  0  0  0  0  0  0  0
   26.5875   -4.8958    0.0000 C   0  0  0  0  0  0  0  0  0  0  0  0
   27.0432   -6.3249    0.0000 C   0  0  0  0  0  0  0  0  0  0  0  0
   26.0334   -7.4341    0.0000 O   0  0  0  0  0  0  0  0  0  0  0  0
   28.0740   -4.6952    0.0000 C   0  0  0  0  0  0  0  0  0  0  0  0
   28.9624   -3.4865    0.0000 O   0  0  0  0  0  0  0  0  0  0  0  0
   28.9910   -5.8822    0.0000 N   0  0  0  0  0  0  0  0  0  0  0  0
   30.4776   -5.6816    0.0000 C   0  0  0  0  0  0  0  0  0  0  0  0
   31.8058   -4.9846    0.0000 C   0  0  0  0  0  0  0  0  0  0  0  0
   32.8156   -3.8754    0.0000 O   0  0  0  0  0  0  0  0  0  0  0  0
   33.0735   -5.7864    0.0000 C   0  0  0  0  0  0  0  0  0  0  0  0
   31.3946   -6.8686    0.0000 C   0  0  0  0  0  0  0  0  0  0  0  0
   32.8945   -6.8507    0.0000 O   0  0  0  0  0  0  0  0  0  0  0  0
   30.8251   -8.2563    0.0000 O   0  0  0  0  0  0  0  0  0  0  0  0
  -29.7288   -2.2690    0.0000 H   0  0  0  0  0  0  0  0  0  0  0  0
  -30.1776    2.2011    0.0000 H   0  0  0  0  0  0  0  0  0  0  0  0
  -32.8601    3.5443    0.0000 H   0  0  0  0  0  0  0  0  0  0  0  0
  -32.1445   -2.3791    0.0000 H   0  0  0  0  0  0  0  0  0  0  0  0
  -38.9793   -4.5234    0.0000 H   0  0  0  0  0  0  0  0  0  0  0  0
  -40.3593    0.4862    0.0000 H   0  0  0  0  0  0  0  0  0  0  0  0
  -37.4671    1.2829    0.0000 H   0  0  0  0  0  0  0  0  0  0  0  0
  -42.1835   -1.3638    0.0000 H   0  0  0  0  0  0  0  0  0  0  0  0
  -32.4387   -0.0268    0.0000 H   0  0  0  0  0  0  0  0  0  0  0  0
  -30.2648   -2.3124    0.0000 H   0  0  0  0  0  0  0  0  0  0  0  0
  -33.9510   -5.8331    0.0000 H   0  0  0  0  0  0  0  0  0  0  0  0
  -31.4368   -6.4879    0.0000 H   0  0  0  0  0  0  0  0  0  0  0  0
  -27.3171   -2.1368    0.0000 H   0  0  0  0  0  0  0  0  0  0  0  0
  -25.2596    1.3905    0.0000 H   0  0  0  0  0  0  0  0  0  0  0  0
  -27.1845    1.2761    0.0000 H   0  0  0  0  0  0  0  0  0  0  0  0
  -23.7820   -1.5752    0.0000 H   0  0  0  0  0  0  0  0  0  0  0  0
  -25.7069   -1.6896    0.0000 H   0  0  0  0  0  0  0  0  0  0  0  0
  -22.1301   -1.8286    0.0000 H   0  0  0  0  0  0  0  0  0  0  0  0
  -21.9975    1.5844    0.0000 H   0  0  0  0  0  0  0  0  0  0  0  0
  -19.6441    3.1363    0.0000 H   0  0  0  0  0  0  0  0  0  0  0  0
  -21.4138    2.3704    0.0000 H   0  0  0  0  0  0  0  0  0  0  0  0
  -17.2412    0.8548    0.0000 H   0  0  0  0  0  0  0  0  0  0  0  0
  -18.2858    0.0561    0.0000 H   0  0  0  0  0  0  0  0  0  0  0  0
  -18.0974    2.1231    0.0000 H   0  0  0  0  0  0  0  0  0  0  0  0
  -18.0666   -1.1092    0.0000 H   0  0  0  0  0  0  0  0  0  0  0  0
  -14.6602   -1.7844    0.0000 H   0  0  0  0  0  0  0  0  0  0  0  0
  -14.8423   -0.1607    0.0000 H   0  0  0  0  0  0  0  0  0  0  0  0
  -17.3243   -3.7545    0.0000 H   0  0  0  0  0  0  0  0  0  0  0  0
  -17.8431   -2.0471    0.0000 H   0  0  0  0  0  0  0  0  0  0  0  0
  -14.0581   -4.3117    0.0000 H   0  0  0  0  0  0  0  0  0  0  0  0
  -14.3649   -2.5538    0.0000 H   0  0  0  0  0  0  0  0  0  0  0  0
  -17.2870   -5.4252    0.0000 H   0  0  0  0  0  0  0  0  0  0  0  0
  -14.1950   -8.6948    0.0000 H   0  0  0  0  0  0  0  0  0  0  0  0
  -16.6848   -7.9526    0.0000 H   0  0  0  0  0  0  0  0  0  0  0  0
  -12.3073   -6.9096    0.0000 H   0  0  0  0  0  0  0  0  0  0  0  0
  -12.9095   -4.3823    0.0000 H   0  0  0  0  0  0  0  0  0  0  0  0
  -14.1678   -1.3441    0.0000 H   0  0  0  0  0  0  0  0  0  0  0  0
  -14.2170    2.0468    0.0000 H   0  0  0  0  0  0  0  0  0  0  0  0
  -12.0420    3.6402    0.0000 H   0  0  0  0  0  0  0  0  0  0  0  0
  -13.6333    2.8328    0.0000 H   0  0  0  0  0  0  0  0  0  0  0  0
  -10.5053    0.5185    0.0000 H   0  0  0  0  0  0  0  0  0  0  0  0
   -8.4202    3.3864    0.0000 H   0  0  0  0  0  0  0  0  0  0  0  0
   -9.4792    4.6306    0.0000 H   0  0  0  0  0  0  0  0  0  0  0  0
  -11.1571    4.0232    0.0000 H   0  0  0  0  0  0  0  0  0  0  0  0
   -9.0121   -0.1141    0.0000 H   0  0  0  0  0  0  0  0  0  0  0  0
   -8.0079    1.6904    0.0000 H   0  0  0  0  0  0  0  0  0  0  0  0
   -8.8602    2.6918    0.0000 H   0  0  0  0  0  0  0  0  0  0  0  0
  -10.3169    2.5855    0.0000 H   0  0  0  0  0  0  0  0  0  0  0  0
  -10.2861   -0.6467    0.0000 H   0  0  0  0  0  0  0  0  0  0  0  0
   -6.8797   -1.3219    0.0000 H   0  0  0  0  0  0  0  0  0  0  0  0
   -6.9544    0.1533    0.0000 H   0  0  0  0  0  0  0  0  0  0  0  0
   -9.5438   -3.2921    0.0000 H   0  0  0  0  0  0  0  0  0  0  0  0
  -10.0626   -1.5847    0.0000 H   0  0  0  0  0  0  0  0  0  0  0  0
   -6.2776   -3.8493    0.0000 H   0  0  0  0  0  0  0  0  0  0  0  0
   -6.5844   -2.0914    0.0000 H   0  0  0  0  0  0  0  0  0  0  0  0
   -9.5065   -4.9628    0.0000 H   0  0  0  0  0  0  0  0  0  0  0  0
   -6.4145   -8.2323    0.0000 H   0  0  0  0  0  0  0  0  0  0  0  0
   -8.9043   -7.4901    0.0000 H   0  0  0  0  0  0  0  0  0  0  0  0
   -4.5268   -6.4472    0.0000 H   0  0  0  0  0  0  0  0  0  0  0  0
   -5.1290   -3.9199    0.0000 H   0  0  0  0  0  0  0  0  0  0  0  0
   -6.3873   -0.8817    0.0000 H   0  0  0  0  0  0  0  0  0  0  0  0
   -6.4365    2.5092    0.0000 H   0  0  0  0  0  0  0  0  0  0  0  0
   -4.2615    4.1026    0.0000 H   0  0  0  0  0  0  0  0  0  0  0  0
   -5.8528    3.2952    0.0000 H   0  0  0  0  0  0  0  0  0  0  0  0
   -1.6803    1.7797    0.0000 H   0  0  0  0  0  0  0  0  0  0  0  0
   -2.7248    0.9809    0.0000 H   0  0  0  0  0  0  0  0  0  0  0  0
   -1.6987    5.0930    0.0000 H   0  0  0  0  0  0  0  0  0  0  0  0
   -3.3766    4.4856    0.0000 H   0  0  0  0  0  0  0  0  0  0  0  0
    0.2740    2.2916    0.0000 H   0  0  0  0  0  0  0  0  0  0  0  0
    2.6416    5.7193    0.0000 H   0  0  0  0  0  0  0  0  0  0  0  0
    2.1925    3.0708    0.0000 H   0  0  0  0  0  0  0  0  0  0  0  0
    0.5557    7.2683    0.0000 H   0  0  0  0  0  0  0  0  0  0  0  0
   -1.8286    6.2364    0.0000 H   0  0  0  0  0  0  0  0  0  0  0  0
   -2.5364    3.0479    0.0000 H   0  0  0  0  0  0  0  0  0  0  0  0
   -2.5056   -0.1843    0.0000 H   0  0  0  0  0  0  0  0  0  0  0  0
    0.9008   -0.8595    0.0000 H   0  0  0  0  0  0  0  0  0  0  0  0
    0.7187    0.7641    0.0000 H   0  0  0  0  0  0  0  0  0  0  0  0
   -1.7633   -2.8297    0.0000 H   0  0  0  0  0  0  0  0  0  0  0  0
   -2.2821   -1.1223    0.0000 H   0  0  0  0  0  0  0  0  0  0  0  0
    1.5029   -3.3869    0.0000 H   0  0  0  0  0  0  0  0  0  0  0  0
    1.1961   -1.6290    0.0000 H   0  0  0  0  0  0  0  0  0  0  0  0
   -1.7260   -4.5004    0.0000 H   0  0  0  0  0  0  0  0  0  0  0  0
    1.3660   -7.7699    0.0000 H   0  0  0  0  0  0  0  0  0  0  0  0
   -1.1238   -7.0277    0.0000 H   0  0  0  0  0  0  0  0  0  0  0  0
    3.2537   -5.9848    0.0000 H   0  0  0  0  0  0  0  0  0  0  0  0
    2.6515   -3.4574    0.0000 H   0  0  0  0  0  0  0  0  0  0  0  0
    1.3932   -0.4193    0.0000 H   0  0  0  0  0  0  0  0  0  0  0  0
    1.3440    2.9717    0.0000 H   0  0  0  0  0  0  0  0  0  0  0  0
    3.5190    4.5651    0.0000 H   0  0  0  0  0  0  0  0  0  0  0  0
    1.8050    3.4132    0.0000 H   0  0  0  0  0  0  0  0  0  0  0  0
    6.1721    2.4106    0.0000 H   0  0  0  0  0  0  0  0  0  0  0  0
    4.8742    1.4181    0.0000 H   0  0  0  0  0  0  0  0  0  0  0  0
    5.5381    5.6135    0.0000 H   0  0  0  0  0  0  0  0  0  0  0  0
    4.4039    4.9480    0.0000 H   0  0  0  0  0  0  0  0  0  0  0  0
    8.2139    4.9079    0.0000 H   0  0  0  0  0  0  0  0  0  0  0  0
    8.4846    3.2740    0.0000 H   0  0  0  0  0  0  0  0  0  0  0  0
    7.3895    2.4752    0.0000 H   0  0  0  0  0  0  0  0  0  0  0  0
    5.0623    3.5330    0.0000 H   0  0  0  0  0  0  0  0  0  0  0  0
    5.1947   -0.0215    0.0000 H   0  0  0  0  0  0  0  0  0  0  0  0
    5.8601   -1.3330    0.0000 H   0  0  0  0  0  0  0  0  0  0  0  0
    6.0938   -1.9125    0.0000 H   0  0  0  0  0  0  0  0  0  0  0  0
    6.8870   -2.7327    0.0000 H   0  0  0  0  0  0  0  0  0  0  0  0
    7.3472   -3.1311    0.0000 H   0  0  0  0  0  0  0  0  0  0  0  0
    8.6359   -3.8399    0.0000 H   0  0  0  0  0  0  0  0  0  0  0  0
    9.6021   -4.3916    0.0000 H   0  0  0  0  0  0  0  0  0  0  0  0
    4.9786   -1.0979    0.0000 H   0  0  0  0  0  0  0  0  0  0  0  0
    3.8161   -0.2282    0.0000 H   0  0  0  0  0  0  0  0  0  0  0  0
    4.0408    1.4279    0.0000 H   0  0  0  0  0  0  0  0  0  0  0  0
    5.6412    5.1385    0.0000 H   0  0  0  0  0  0  0  0  0  0  0  0
    6.2983    5.8016    0.0000 H   0  0  0  0  0  0  0  0  0  0  0  0
    7.8416    8.3978    0.0000 H   0  0  0  0  0  0  0  0  0  0  0  0
    8.8947    7.3619    0.0000 H   0  0  0  0  0  0  0  0  0  0  0  0
    5.4637    6.0228    0.0000 H   0  0  0  0  0  0  0  0  0  0  0  0
    4.3560    9.5153    0.0000 H   0  0  0  0  0  0  0  0  0  0  0  0
    5.9246   10.3660    0.0000 H   0  0  0  0  0  0  0  0  0  0  0  0
    7.1968    9.1147    0.0000 H   0  0  0  0  0  0  0  0  0  0  0  0
    3.5837    8.5278    0.0000 H   0  0  0  0  0  0  0  0  0  0  0  0
    3.1362    6.8004    0.0000 H   0  0  0  0  0  0  0  0  0  0  0  0
    4.8384    5.8943    0.0000 H   0  0  0  0  0  0  0  0  0  0  0  0
   10.1162    8.3347    0.0000 H   0  0  0  0  0  0  0  0  0  0  0  0
   11.2261    8.2569    0.0000 H   0  0  0  0  0  0  0  0  0  0  0  0
   14.1349    8.8322    0.0000 H   0  0  0  0  0  0  0  0  0  0  0  0
   14.0649    7.1998    0.0000 H   0  0  0  0  0  0  0  0  0  0  0  0
   13.2698   10.6327    0.0000 H   0  0  0  0  0  0  0  0  0  0  0  0
   15.5870    6.8514    0.0000 H   0  0  0  0  0  0  0  0  0  0  0  0
   16.0480    6.0027    0.0000 H   0  0  0  0  0  0  0  0  0  0  0  0
   18.4059    3.8528    0.0000 H   0  0  0  0  0  0  0  0  0  0  0  0
   17.1617    3.0566    0.0000 H   0  0  0  0  0  0  0  0  0  0  0  0
   18.1333    7.3147    0.0000 H   0  0  0  0  0  0  0  0  0  0  0  0
   16.5242    6.5432    0.0000 H   0  0  0  0  0  0  0  0  0  0  0  0
   20.7513    5.2838    0.0000 H   0  0  0  0  0  0  0  0  0  0  0  0
   19.2483    4.3220    0.0000 H   0  0  0  0  0  0  0  0  0  0  0  0
   19.3900    8.4163    0.0000 H   0  0  0  0  0  0  0  0  0  0  0  0
   23.8894    8.3468    0.0000 H   0  0  0  0  0  0  0  0  0  0  0  0
   21.6598    9.6804    0.0000 H   0  0  0  0  0  0  0  0  0  0  0  0
   23.8493    5.7491    0.0000 H   0  0  0  0  0  0  0  0  0  0  0  0
   21.5796    4.4849    0.0000 H   0  0  0  0  0  0  0  0  0  0  0  0
   17.8383    1.6493    0.0000 H   0  0  0  0  0  0  0  0  0  0  0  0
   15.8779   -2.4919    0.0000 H   0  0  0  0  0  0  0  0  0  0  0  0
   16.7801   -1.5444    0.0000 H   0  0  0  0  0  0  0  0  0  0  0  0
   14.5585   -3.6201    0.0000 H   0  0  0  0  0  0  0  0  0  0  0  0
   15.5181   -3.0027    0.0000 H   0  0  0  0  0  0  0  0  0  0  0  0
   12.6031   -4.2988    0.0000 H   0  0  0  0  0  0  0  0  0  0  0  0
   14.0195   -3.9029    0.0000 H   0  0  0  0  0  0  0  0  0  0  0  0
   11.5364   -4.6153    0.0000 H   0  0  0  0  0  0  0  0  0  0  0  0
   18.7792   -0.2236    0.0000 H   0  0  0  0  0  0  0  0  0  0  0  0
   18.6577    1.5567    0.0000 H   0  0  0  0  0  0  0  0  0  0  0  0
   17.2705    2.0643    0.0000 H   0  0  0  0  0  0  0  0  0  0  0  0
   19.1942    0.5583    0.0000 H   0  0  0  0  0  0  0  0  0  0  0  0
   18.0486   -2.6336    0.0000 H   0  0  0  0  0  0  0  0  0  0  0  0
   20.5981   -4.6557    0.0000 H   0  0  0  0  0  0  0  0  0  0  0  0
   21.2900   -3.0109    0.0000 H   0  0  0  0  0  0  0  0  0  0  0  0
   20.4936   -6.5614    0.0000 H   0  0  0  0  0  0  0  0  0  0  0  0
   17.6586   -8.1776    0.0000 H   0  0  0  0  0  0  0  0  0  0  0  0
   15.2454   -5.9808    0.0000 H   0  0  0  0  0  0  0  0  0  0  0  0
   21.3843   -4.3698    0.0000 H   0  0  0  0  0  0  0  0  0  0  0  0
   22.8112   -1.2933    0.0000 H   0  0  0  0  0  0  0  0  0  0  0  0
   25.6049   -0.9162    0.0000 H   0  0  0  0  0  0  0  0  0  0  0  0
   23.6782   -0.8384    0.0000 H   0  0  0  0  0  0  0  0  0  0  0  0
   27.6275   -0.8195    0.0000 H   0  0  0  0  0  0  0  0  0  0  0  0
   29.7115   -3.3308    0.0000 H   0  0  0  0  0  0  0  0  0  0  0  0
   28.1329   -6.0108    0.0000 H   0  0  0  0  0  0  0  0  0  0  0  0
   26.5588   -2.5001    0.0000 H   0  0  0  0  0  0  0  0  0  0  0  0
   25.2592   -5.5928    0.0000 H   0  0  0  0  0  0  0  0  0  0  0  0
   27.8087   -7.6149    0.0000 H   0  0  0  0  0  0  0  0  0  0  0  0
   28.5330   -6.1504    0.0000 H   0  0  0  0  0  0  0  0  0  0  0  0
   26.4892   -8.8632    0.0000 H   0  0  0  0  0  0  0  0  0  0  0  0
   28.5949   -7.3290    0.0000 H   0  0  0  0  0  0  0  0  0  0  0  0
   30.0218   -4.2525    0.0000 H   0  0  0  0  0  0  0  0  0  0  0  0
   30.8888   -3.7976    0.0000 H   0  0  0  0  0  0  0  0  0  0  0  0
   34.3091   -4.0143    0.0000 H   0  0  0  0  0  0  0  0  0  0  0  0
   34.4768   -5.2566    0.0000 H   0  0  0  0  0  0  0  0  0  0  0  0
   33.9905   -6.9735    0.0000 H   0  0  0  0  0  0  0  0  0  0  0  0
   32.5284   -7.1839    0.0000 H   0  0  0  0  0  0  0  0  0  0  0  0
  1  2  1  0
  2  3  1  0
  3  4  2  0
  4  5  1  0
  5  6  2  0
  6  7  1  0
  7  8  2  0
  7  9  1  0
  9 10  1  0
 10 11  1  0
 11 12  2  0
  9 13  1  0
 13 14  1  0
 14 15  2  0
 15 16  1  0
 16 17  2  0
 17 18  1  0
 16 19  1  0
 14 20  1  0
 20 21  1  0
 21 22  2  0
 22 23  1  0
 23 24  2  0
 24 25  1  0
 25 26  2  0
 25 27  1  0
  1 28  2  0
  1 29  1  0
 29 30  1  0
 30 31  1  0
 31 32  1  0
 32 33  2  0
 32 34  1  0
 34 35  1  0
 35 36  1  0
 36 37  1  0
 37 38  1  0
 38 39  2  0
 38 40  1  0
 35 41  1  0
 41 42  2  0
 41 43  1  0
 43 44  1  0
 44 45  1  0
 45 46  1  0
 46 47  1  0
 47 48  1  0
 48 49  1  0
 49 50  2  3
 49 51  1  0
 44 52  1  0
 52 53  2  0
 52 54  1  0
 54 55  1  0
 55 56  1  0
 56 57  1  0
 57 58  1  0
 57 59  1  0
 55 60  1  0
 60 61  2  0
 60 62  1  0
 62 63  1  0
 63 64  1  0
 64 65  1  0
 65 66  1  0
 66 67  1  0
 67 68  1  0
 68 69  2  3
 68 70  1  0
 63 71  1  0
 71 72  2  0
 71 73  1  0
 73 74  1  0
 74 75  1  0
 75 76  1  0
 76 77  1  0
 77 78  1  0
 78 79  1  0
 79 80  2  3
 79 81  1  0
 74 82  1  0
 82 83  2  0
 82 84  1  0
 84 85  1  0
 85 86  1  0
 86 87  1  0
 87 88  1  0
 88 89  1  0
 89 90  1  0
 90 91  2  3
 90 92  1  0
 85 93  1  0
 93 94  2  0
 93 95  1  0
 95 96  1  0
 96 97  1  0
 97 98  1  0
 98 99  1  0
 99100  1  0
 96101  1  0
101102  2  0
101103  1  0
104103  1  6
104105  1  0
105106  1  0
106107  1  0
107108  1  0
104109  1  0
104110  1  0
110111  2  0
110112  1  0
112113  1  0
113114  1  0
114115  1  0
115116  1  0
115117  1  0
113118  1  0
118119  2  0
118120  1  0
120121  1  0
121122  1  0
122123  1  0
121124  1  0
124125  2  0
124126  1  0
126127  1  0
127128  1  0
128129  1  0
129130  1  0
130131  1  0
131132  1  0
132133  2  3
132134  1  0
127135  1  0
135136  2  0
135137  1  0
137138  1  0
138139  1  0
139140  1  0
140141  1  0
141142  1  0
138143  1  0
138144  1  6
144145  2  0
144146  1  0
146147  1  0
147148  1  0
148149  1  0
149150  2  0
150151  1  0
151152  1  0
152153  2  0
147154  1  0
154155  2  0
154156  1  0
156157  1  0
157158  1  0
158159  1  0
159160  2  0
160161  1  0
161162  1  0
162163  2  0
157164  1  0
164165  2  0
164166  1  0
166167  1  0
167168  1  0
168169  1  0
167170  1  0
170171  2  0
170172  1  0
172173  1  0
173174  1  0
174175  1  0
174176  1  0
173177  1  0
177178  2  0
177179  1  0
  8  3  1  0
153149  1  0
163159  1  0
 11  6  1  0
 18 13  2  0
108142  2  0
 22  9  1  0
 26 21  1  0
  2180  1  0
  4181  1  0
  5182  1  0
  8183  1  0
 15184  1  0
 17185  1  0
 18186  1  0
 19187  1  0
 23188  1  0
 24189  1  0
 26190  1  0
 27191  1  0
 29192  1  0
 30193  1  0
 30194  1  0
 31195  1  0
 31196  1  0
 34197  1  0
 35198  1  1
 36199  1  0
 36200  1  0
 37201  1  0
 37202  1  0
 43203  1  0
 44204  1  6
 45205  1  0
 45206  1  0
 46207  1  0
 46208  1  0
 47209  1  0
 47210  1  0
 48211  1  0
 50212  1  0
 50213  1  0
 51214  1  0
 51215  1  0
 54216  1  0
 55217  1  1
 56218  1  0
 56219  1  0
 57220  1  0
 58221  1  0
 58222  1  0
 58223  1  0
 59224  1  0
 59225  1  0
 59226  1  0
 62227  1  0
 63228  1  6
 64229  1  0
 64230  1  0
 65231  1  0
 65232  1  0
 66233  1  0
 66234  1  0
 67235  1  0
 69236  1  0
 69237  1  0
 70238  1  0
 70239  1  0
 73240  1  0
 74241  1  1
 75242  1  0
 75243  1  0
 76244  1  0
 76245  1  0
 77246  1  0
 77247  1  0
 78248  1  0
 80249  1  0
 80250  1  0
 81251  1  0
 81252  1  0
 84253  1  0
 85254  1  6
 86255  1  0
 86256  1  0
 87257  1  0
 87258  1  0
 88259  1  0
 88260  1  0
 89261  1  0
 91262  1  0
 91263  1  0
 92264  1  0
 92265  1  0
 95266  1  0
 96267  1  6
 97268  1  0
 97269  1  0
 98270  1  0
 98271  1  0
 99272  1  0
 99273  1  0
100274  1  0
100275  1  0
100276  1  0
103277  1  0
105278  1  0
105279  1  0
106280  1  0
106281  1  0
107282  1  0
107283  1  0
108284  1  0
109285  1  0
109286  1  0
109287  1  0
112288  1  0
113289  1  1
114290  1  0
114291  1  0
115292  1  0
116293  1  0
116294  1  0
116295  1  0
117296  1  0
117297  1  0
117298  1  0
120299  1  0
121300  1  1
122301  1  0
122302  1  0
123303  1  0
126304  1  0
127305  1  1
128306  1  0
128307  1  0
129308  1  0
129309  1  0
130310  1  0
130311  1  0
131312  1  0
133313  1  0
133314  1  0
134315  1  0
134316  1  0
137317  1  0
139318  1  0
139319  1  0
140320  1  0
140321  1  0
141322  1  0
141323  1  0
142324  1  0
143325  1  0
143326  1  0
143327  1  0
146328  1  0
147329  1  6
148330  1  0
148331  1  0
150332  1  0
151333  1  0
152334  1  0
156335  1  0
157336  1  1
158337  1  0
158338  1  0
160339  1  0
161340  1  0
162341  1  0
166342  1  0
167343  1  6
168344  1  0
168345  1  0
169346  1  0
172347  1  0
173348  1  1
174349  1  1
175350  1  0
176351  1  0
176352  1  0
176353  1  0
M  CHG  7  40  -1  50   1  69   1  80   1  91   1 133   1 179  -1
M  END
