
     RDKit          2D

304310  0  0  0  0  0  0  0  0999 V2000
   20.3971   -3.3044    0.0000 C   0  0  0  0  0  0  0  0  0  0  0  0
   21.7203   -2.5979    0.0000 N   0  0  0  0  0  0  0  0  0  0  0  0
   22.9938   -3.3906    0.0000 C   0  0  0  0  0  0  0  0  0  0  0  0
   22.9440   -4.8897    0.0000 C   0  0  0  0  0  0  0  0  0  0  0  0
   24.2175   -5.6824    0.0000 C   0  0  0  0  0  0  0  0  0  0  0  0
   25.5407   -4.9759    0.0000 C   0  0  0  0  0  0  0  0  0  0  0  0
   25.5904   -3.4767    0.0000 C   0  0  0  0  0  0  0  0  0  0  0  0
   24.3169   -2.6840    0.0000 C   0  0  0  0  0  0  0  0  0  0  0  0
   27.0316   -3.0607    0.0000 C   0  0  0  0  0  0  0  0  0  0  0  0
   27.8725   -4.3028    0.0000 O   0  0  0  0  0  0  0  0  0  0  0  0
   26.9511   -5.4865    0.0000 C   0  0  0  0  0  0  0  0  0  0  0  0
   27.3671   -6.9276    0.0000 O   0  0  0  0  0  0  0  0  0  0  0  0
   28.5083   -2.7977    0.0000 C   0  0  0  0  0  0  0  0  0  0  0  0
   29.0189   -1.3873    0.0000 C   0  0  0  0  0  0  0  0  0  0  0  0
   30.4957   -1.1242    0.0000 C   0  0  0  0  0  0  0  0  0  0  0  0
   31.4618   -2.2716    0.0000 C   0  0  0  0  0  0  0  0  0  0  0  0
   30.9513   -3.6820    0.0000 C   0  0  0  0  0  0  0  0  0  0  0  0
   29.4745   -3.9451    0.0000 C   0  0  0  0  0  0  0  0  0  0  0  0
   32.9386   -2.0086    0.0000 O   0  0  0  0  0  0  0  0  0  0  0  0
   28.0527   -0.2399    0.0000 O   0  0  0  0  0  0  0  0  0  0  0  0
   26.5760   -0.5029    0.0000 C   0  0  0  0  0  0  0  0  0  0  0  0
   26.0654   -1.9134    0.0000 C   0  0  0  0  0  0  0  0  0  0  0  0
   24.8269   -1.5182    0.0000 C   0  0  0  0  0  0  0  0  0  0  0  0
   24.3116   -0.9063    0.0000 C   0  0  0  0  0  0  0  0  0  0  0  0
   24.5839   -0.1540    0.0000 C   0  0  0  0  0  0  0  0  0  0  0  0
   25.3715   -0.0137    0.0000 C   0  0  0  0  0  0  0  0  0  0  0  0
   23.1668    1.5288    0.0000 O   0  0  0  0  0  0  0  0  0  0  0  0
   20.3474   -4.8036    0.0000 S   0  0  0  0  0  0  0  0  0  0  0  0
   19.1237   -2.5118    0.0000 N   0  0  0  0  0  0  0  0  0  0  0  0
   17.8005   -3.2183    0.0000 C   0  0  0  0  0  0  0  0  0  0  0  0
   16.5270   -2.4256    0.0000 C   0  0  0  0  0  0  0  0  0  0  0  0
   15.2038   -3.1321    0.0000 C   0  0  0  0  0  0  0  0  0  0  0  0
   15.3710   -3.9116    0.0000 O   0  0  0  0  0  0  0  0  0  0  0  0
   13.9304   -2.3395    0.0000 N   0  0  0  0  0  0  0  0  0  0  0  0
   12.6072   -3.0460    0.0000 C   0  0  0  0  0  0  0  0  0  0  0  0
   13.5327   -4.2264    0.0000 C   0  0  0  0  0  0  0  0  0  0  0  0
   15.0178   -4.0150    0.0000 C   0  0  0  0  0  0  0  0  0  0  0  0
   15.9433   -5.1954    0.0000 N   0  0  0  0  0  0  0  0  0  0  0  0
   15.8974   -2.8000    0.0000 O   0  0  0  0  0  0  0  0  0  0  0  0
   11.1221   -3.2573    0.0000 C   0  0  0  0  0  0  0  0  0  0  0  0
   10.9160   -4.7431    0.0000 O   0  0  0  0  0  0  0  0  0  0  0  0
   10.1966   -2.0769    0.0000 N   0  0  0  0  0  0  0  0  0  0  0  0
    8.7115   -2.2883    0.0000 C   0  0  0  0  0  0  0  0  0  0  0  0
    9.1776   -3.7140    0.0000 C   0  0  0  0  0  0  0  0  0  0  0  0
   10.6453   -4.0234    0.0000 C   0  0  0  0  0  0  0  0  0  0  0  0
   11.1113   -5.4491    0.0000 C   0  0  0  0  0  0  0  0  0  0  0  0
   12.5304   -5.9350    0.0000 O   0  0  0  0  0  0  0  0  0  0  0  0
   10.1096   -6.5656    0.0000 O   0  0  0  0  0  0  0  0  0  0  0  0
    7.2438   -1.9790    0.0000 C   0  0  0  0  0  0  0  0  0  0  0  0
    6.5420   -3.3046    0.0000 O   0  0  0  0  0  0  0  0  0  0  0  0
    6.7778   -0.5532    0.0000 N   0  0  0  0  0  0  0  0  0  0  0  0
    5.3100   -0.2439    0.0000 C   0  0  0  0  0  0  0  0  0  0  0  0
    5.2603   -1.7431    0.0000 C   0  0  0  0  0  0  0  0  0  0  0  0
    6.5337   -2.5357    0.0000 C   0  0  0  0  0  0  0  0  0  0  0  0
    6.4840   -4.0349    0.0000 C   0  0  0  0  0  0  0  0  0  0  0  0
    8.0015   -2.8450    0.0000 C   0  0  0  0  0  0  0  0  0  0  0  0
    4.0366    0.5488    0.0000 C   0  0  0  0  0  0  0  0  0  0  0  0
    2.9236   -0.4569    0.0000 O   0  0  0  0  0  0  0  0  0  0  0  0
    4.0863    2.0480    0.0000 N   0  0  0  0  0  0  0  0  0  0  0  0
    2.8128    2.8406    0.0000 C   0  0  0  0  0  0  0  0  0  0  0  0
    2.6681    1.3476    0.0000 C   0  0  0  0  0  0  0  0  0  0  0  0
    2.2435   -0.0910    0.0000 C   0  0  0  0  0  0  0  0  0  0  0  0
    1.5542   -1.4233    0.0000 C   0  0  0  0  0  0  0  0  0  0  0  0
    0.6253   -2.6010    0.0000 C   0  0  0  0  0  0  0  0  0  0  0  0
   -0.5097   -3.5817    0.0000 C   0  0  0  0  0  0  0  0  0  0  0  0
   -1.8099   -4.3298    0.0000 C   0  0  0  0  0  0  0  0  0  0  0  0
   -3.2281   -4.8184    0.0000 C   0  0  0  0  0  0  0  0  0  0  0  0
    4.0885    3.6296    0.0000 C   0  0  0  0  0  0  0  0  0  0  0  0
    2.6724    4.3340    0.0000 C   0  0  0  0  0  0  0  0  0  0  0  0
    4.1003    4.7933    0.0000 O   0  0  0  0  0  0  0  0  0  0  0  0
    2.2518    5.7739    0.0000 N   0  0  0  0  0  0  0  0  0  0  0  0
    1.5664    7.1081    0.0000 C   0  0  0  0  0  0  0  0  0  0  0  0
    2.2130    8.4616    0.0000 C   0  0  0  0  0  0  0  0  0  0  0  0
    3.7085    8.5783    0.0000 C   0  0  0  0  0  0  0  0  0  0  0  0
    4.3551    9.9318    0.0000 C   0  0  0  0  0  0  0  0  0  0  0  0
    5.8506   10.0485    0.0000 N   0  0  0  0  0  0  0  0  0  0  0  0
    6.4972   11.4020    0.0000 C   0  0  0  0  0  0  0  0  0  0  0  0
    7.9926   11.5187    0.0000 N   0  0  0  0  0  0  0  0  0  0  0  0
    5.6484   12.6387    0.0000 N   0  0  0  0  0  0  0  0  0  0  0  0
    0.6409    8.2885    0.0000 C   0  0  0  0  0  0  0  0  0  0  0  0
    1.5938    9.4469    0.0000 O   0  0  0  0  0  0  0  0  0  0  0  0
   -0.4914    9.2724    0.0000 N   0  0  0  0  0  0  0  0  0  0  0  0
   -1.7893   10.0243    0.0000 C   0  0  0  0  0  0  0  0  0  0  0  0
   -1.9771   11.5125    0.0000 C   0  0  0  0  0  0  0  0  0  0  0  0
   -0.7821   12.4192    0.0000 O   0  0  0  0  0  0  0  0  0  0  0  0
   -3.2061   10.5169    0.0000 C   0  0  0  0  0  0  0  0  0  0  0  0
   -3.0307   12.0066    0.0000 O   0  0  0  0  0  0  0  0  0  0  0  0
   -4.6905   10.7325    0.0000 N   0  0  0  0  0  0  0  0  0  0  0  0
   -6.1889   10.6633    0.0000 C   0  0  0  0  0  0  0  0  0  0  0  0
   -7.1515   11.8137    0.0000 C   0  0  0  0  0  0  0  0  0  0  0  0
   -6.6364   13.2225    0.0000 C   0  0  0  0  0  0  0  0  0  0  0  0
   -5.1589   13.4809    0.0000 C   0  0  0  0  0  0  0  0  0  0  0  0
   -4.6438   14.8897    0.0000 C   0  0  0  0  0  0  0  0  0  0  0  0
   -5.6063   16.0401    0.0000 C   0  0  0  0  0  0  0  0  0  0  0  0
   -7.0839   15.7818    0.0000 C   0  0  0  0  0  0  0  0  0  0  0  0
   -7.5990   14.3730    0.0000 C   0  0  0  0  0  0  0  0  0  0  0  0
   -7.6472   10.3117    0.0000 C   0  0  0  0  0  0  0  0  0  0  0  0
   -8.3050   11.6598    0.0000 O   0  0  0  0  0  0  0  0  0  0  0  0
   -9.0125    9.6906    0.0000 N   0  0  0  0  0  0  0  0  0  0  0  0
  -10.2356    8.8222    0.0000 C   0  0  0  0  0  0  0  0  0  0  0  0
  -11.6673    9.2696    0.0000 C   0  0  0  0  0  0  0  0  0  0  0  0
  -11.9957   10.7333    0.0000 C   0  0  0  0  0  0  0  0  0  0  0  0
  -13.4274   11.1807    0.0000 C   0  0  0  0  0  0  0  0  0  0  0  0
  -13.7558   12.6443    0.0000 N   0  0  0  0  0  0  0  0  0  0  0  0
  -15.1875   13.0917    0.0000 C   0  0  0  0  0  0  0  0  0  0  0  0
  -15.5159   14.5553    0.0000 N   0  0  0  0  0  0  0  0  0  0  0  0
  -16.2908   12.0755    0.0000 N   0  0  0  0  0  0  0  0  0  0  0  0
  -11.2723    7.7381    0.0000 C   0  0  0  0  0  0  0  0  0  0  0  0
  -12.5545    8.5165    0.0000 O   0  0  0  0  0  0  0  0  0  0  0  0
  -12.0850    6.4774    0.0000 N   0  0  0  0  0  0  0  0  0  0  0  0
  -12.6445    5.0856    0.0000 C   0  0  0  0  0  0  0  0  0  0  0  0
  -14.0909    4.6880    0.0000 C   0  0  0  0  0  0  0  0  0  0  0  0
  -12.9305    3.6131    0.0000 C   0  0  0  0  0  0  0  0  0  0  0  0
  -14.4300    3.5748    0.0000 O   0  0  0  0  0  0  0  0  0  0  0  0
  -12.9327    2.1131    0.0000 N   0  0  0  0  0  0  0  0  0  0  0  0
  -12.6509    0.6398    0.0000 C   0  0  0  0  0  0  0  0  0  0  0  0
  -13.6526   -0.4766    0.0000 C   0  0  0  0  0  0  0  0  0  0  0  0
  -15.1204   -0.1673    0.0000 C   0  0  0  0  0  0  0  0  0  0  0  0
  -16.1222   -1.2838    0.0000 C   0  0  0  0  0  0  0  0  0  0  0  0
  -16.3939    0.6253    0.0000 C   0  0  0  0  0  0  0  0  0  0  0  0
  -12.0954   -0.7535    0.0000 C   0  0  0  0  0  0  0  0  0  0  0  0
  -13.3361   -1.5965    0.0000 O   0  0  0  0  0  0  0  0  0  0  0  0
  -11.2862   -2.0165    0.0000 N   0  0  0  0  0  0  0  0  0  0  0  0
  -10.2527   -3.1036    0.0000 C   0  0  0  0  0  0  0  0  0  0  0  0
   -9.0321   -3.9755    0.0000 C   0  0  0  0  0  0  0  0  0  0  0  0
   -7.6685   -4.6005    0.0000 C   0  0  0  0  0  0  0  0  0  0  0  0
   -6.2113   -4.9563    0.0000 C   0  0  0  0  0  0  0  0  0  0  0  0
   -4.7131   -5.0298    0.0000 C   0  0  0  0  0  0  0  0  0  0  0  0
  -11.6857   -3.5470    0.0000 C   0  0  0  0  0  0  0  0  0  0  0  0
  -10.4918   -4.5844    0.0000 C   0  0  0  0  0  0  0  0  0  0  0  0
   -9.5928   -5.7852    0.0000 O   0  0  0  0  0  0  0  0  0  0  0  0
  -11.8938   -5.1178    0.0000 N   0  0  0  0  0  0  0  0  0  0  0  0
  -12.1329   -6.5986    0.0000 C   0  0  0  0  0  0  0  0  0  0  0  0
  -11.8511   -8.0719    0.0000 C   0  0  0  0  0  0  0  0  0  0  0  0
  -12.9862   -9.0526    0.0000 C   0  0  0  0  0  0  0  0  0  0  0  0
  -12.7044  -10.5259    0.0000 O   0  0  0  0  0  0  0  0  0  0  0  0
  -14.4801   -8.9174    0.0000 O   0  0  0  0  0  0  0  0  0  0  0  0
  -13.5349   -7.1319    0.0000 C   0  0  0  0  0  0  0  0  0  0  0  0
  -14.6977   -6.1844    0.0000 O   0  0  0  0  0  0  0  0  0  0  0  0
  -13.7740   -8.6127    0.0000 N   0  0  0  0  0  0  0  0  0  0  0  0
  -15.1760   -9.1461    0.0000 C   0  0  0  0  0  0  0  0  0  0  0  0
  -16.6758   -9.1677    0.0000 C   0  0  0  0  0  0  0  0  0  0  0  0
  -17.4070  -10.4774    0.0000 C   0  0  0  0  0  0  0  0  0  0  0  0
  -18.9068  -10.4991    0.0000 C   0  0  0  0  0  0  0  0  0  0  0  0
  -19.7922  -11.7099    0.0000 N   0  0  0  0  0  0  0  0  0  0  0  0
  -19.6755   -9.2110    0.0000 O   0  0  0  0  0  0  0  0  0  0  0  0
  -15.4151  -10.6269    0.0000 C   0  0  0  0  0  0  0  0  0  0  0  0
  -14.2522  -11.5744    0.0000 O   0  0  0  0  0  0  0  0  0  0  0  0
  -16.8171  -11.1602    0.0000 N   0  0  0  0  0  0  0  0  0  0  0  0
  -17.0562  -12.6410    0.0000 C   0  0  0  0  0  0  0  0  0  0  0  0
  -16.7744  -14.1143    0.0000 C   0  0  0  0  0  0  0  0  0  0  0  0
  -17.9095  -15.0950    0.0000 C   0  0  0  0  0  0  0  0  0  0  0  0
  -16.0058  -15.4024    0.0000 C   0  0  0  0  0  0  0  0  0  0  0  0
  -14.5059  -15.3807    0.0000 C   0  0  0  0  0  0  0  0  0  0  0  0
  -18.4582  -13.1743    0.0000 C   0  0  0  0  0  0  0  0  0  0  0  0
  -18.8760  -14.6150    0.0000 O   0  0  0  0  0  0  0  0  0  0  0  0
  -19.7279  -12.3757    0.0000 O   0  0  0  0  0  0  0  0  0  0  0  0
   21.5869   -1.1038    0.0000 H   0  0  0  0  0  0  0  0  0  0  0  0
   21.6208   -5.5963    0.0000 H   0  0  0  0  0  0  0  0  0  0  0  0
   24.1677   -7.1816    0.0000 H   0  0  0  0  0  0  0  0  0  0  0  0
   24.0024   -1.2174    0.0000 H   0  0  0  0  0  0  0  0  0  0  0  0
   31.0062    0.2862    0.0000 H   0  0  0  0  0  0  0  0  0  0  0  0
   31.9175   -4.8294    0.0000 H   0  0  0  0  0  0  0  0  0  0  0  0
   28.9639   -5.3555    0.0000 H   0  0  0  0  0  0  0  0  0  0  0  0
   33.9048   -3.1559    0.0000 H   0  0  0  0  0  0  0  0  0  0  0  0
   24.0781   -3.5868    0.0000 H   0  0  0  0  0  0  0  0  0  0  0  0
   22.1246   -1.1101    0.0000 H   0  0  0  0  0  0  0  0  0  0  0  0
   26.1204    2.0549    0.0000 H   0  0  0  0  0  0  0  0  0  0  0  0
   23.6774    2.9392    0.0000 H   0  0  0  0  0  0  0  0  0  0  0  0
   19.1734   -1.0126    0.0000 H   0  0  0  0  0  0  0  0  0  0  0  0
   18.7260   -4.3987    0.0000 H   0  0  0  0  0  0  0  0  0  0  0  0
   16.9423   -4.4485    0.0000 H   0  0  0  0  0  0  0  0  0  0  0  0
   17.5288   -1.3091    0.0000 H   0  0  0  0  0  0  0  0  0  0  0  0
   15.6015   -1.2452    0.0000 H   0  0  0  0  0  0  0  0  0  0  0  0
   13.9801   -0.8403    0.0000 H   0  0  0  0  0  0  0  0  0  0  0  0
   12.1412   -1.6202    0.0000 H   0  0  0  0  0  0  0  0  0  0  0  0
   13.9987   -5.6522    0.0000 H   0  0  0  0  0  0  0  0  0  0  0  0
   12.3055   -5.0889    0.0000 H   0  0  0  0  0  0  0  0  0  0  0  0
   17.4430   -5.1667    0.0000 H   0  0  0  0  0  0  0  0  0  0  0  0
   15.3838   -6.5872    0.0000 H   0  0  0  0  0  0  0  0  0  0  0  0
   10.7561   -0.6852    0.0000 H   0  0  0  0  0  0  0  0  0  0  0  0
    8.9437   -0.8063    0.0000 H   0  0  0  0  0  0  0  0  0  0  0  0
    9.1278   -5.2132    0.0000 H   0  0  0  0  0  0  0  0  0  0  0  0
    7.7878   -4.2785    0.0000 H   0  0  0  0  0  0  0  0  0  0  0  0
   12.1304   -3.8120    0.0000 H   0  0  0  0  0  0  0  0  0  0  0  0
   11.0563   -2.5808    0.0000 H   0  0  0  0  0  0  0  0  0  0  0  0
    7.7795    0.5633    0.0000 H   0  0  0  0  0  0  0  0  0  0  0  0
    5.8695    1.1479    0.0000 H   0  0  0  0  0  0  0  0  0  0  0  0
    4.5353   -3.0562    0.0000 H   0  0  0  0  0  0  0  0  0  0  0  0
    3.7925   -1.4337    0.0000 H   0  0  0  0  0  0  0  0  0  0  0  0
    7.4134   -1.3207    0.0000 H   0  0  0  0  0  0  0  0  0  0  0  0
    7.5278   -5.1121    0.0000 H   0  0  0  0  0  0  0  0  0  0  0  0
    5.9245   -5.4266    0.0000 H   0  0  0  0  0  0  0  0  0  0  0  0
    4.9895   -3.9068    0.0000 H   0  0  0  0  0  0  0  0  0  0  0  0
    8.4675   -4.2708    0.0000 H   0  0  0  0  0  0  0  0  0  0  0  0
    9.4935   -2.9993    0.0000 H   0  0  0  0  0  0  0  0  0  0  0  0
    7.8681   -1.3510    0.0000 H   0  0  0  0  0  0  0  0  0  0  0  0
    5.4857    2.5879    0.0000 H   0  0  0  0  0  0  0  0  0  0  0  0
    4.1575    1.5258    0.0000 H   0  0  0  0  0  0  0  0  0  0  0  0
    3.6361    0.2017    0.0000 H   0  0  0  0  0  0  0  0  0  0  0  0
    3.7155   -0.3795    0.0000 H   0  0  0  0  0  0  0  0  0  0  0  0
    3.1311   -1.3002    0.0000 H   0  0  0  0  0  0  0  0  0  0  0  0
    3.0540   -1.4492    0.0000 H   0  0  0  0  0  0  0  0  0  0  0  0
    2.3574   -2.6901    0.0000 H   0  0  0  0  0  0  0  0  0  0  0  0
    2.0444   -3.0870    0.0000 H   0  0  0  0  0  0  0  0  0  0  0  0
    1.1742   -3.9970    0.0000 H   0  0  0  0  0  0  0  0  0  0  0  0
    0.7918   -4.3274    0.0000 H   0  0  0  0  0  0  0  0  0  0  0  0
   -0.2349   -5.0563    0.0000 H   0  0  0  0  0  0  0  0  0  0  0  0
   -0.6730   -5.3084    0.0000 H   0  0  0  0  0  0  0  0  0  0  0  0
   -2.0019   -5.8175    0.0000 H   0  0  0  0  0  0  0  0  0  0  0  0
   -2.8765   -6.2766    0.0000 H   0  0  0  0  0  0  0  0  0  0  0  0
    5.4864    3.0857    0.0000 H   0  0  0  0  0  0  0  0  0  0  0  0
    5.1541    4.6854    0.0000 H   0  0  0  0  0  0  0  0  0  0  0  0
    3.3905    4.9573    0.0000 H   0  0  0  0  0  0  0  0  0  0  0  0
    3.7025    6.1554    0.0000 H   0  0  0  0  0  0  0  0  0  0  0  0
    3.0577    6.9468    0.0000 H   0  0  0  0  0  0  0  0  0  0  0  0
    2.3578    9.9546    0.0000 H   0  0  0  0  0  0  0  0  0  0  0  0
    0.9080    9.2011    0.0000 H   0  0  0  0  0  0  0  0  0  0  0  0
    5.1537    8.1765    0.0000 H   0  0  0  0  0  0  0  0  0  0  0  0
    3.9293    7.0947    0.0000 H   0  0  0  0  0  0  0  0  0  0  0  0
    4.4998   11.4248    0.0000 H   0  0  0  0  0  0  0  0  0  0  0  0
    2.9697   10.5067    0.0000 H   0  0  0  0  0  0  0  0  0  0  0  0
    6.6994    8.8118    0.0000 H   0  0  0  0  0  0  0  0  0  0  0  0
    8.6393   12.8722    0.0000 H   0  0  0  0  0  0  0  0  0  0  0  0
    8.8415   10.2820    0.0000 H   0  0  0  0  0  0  0  0  0  0  0  0
    6.2950   13.9922    0.0000 H   0  0  0  0  0  0  0  0  0  0  0  0
    4.1529   12.5220    0.0000 H   0  0  0  0  0  0  0  0  0  0  0  0
    0.3805   10.4930    0.0000 H   0  0  0  0  0  0  0  0  0  0  0  0
   -0.5393   10.8534    0.0000 H   0  0  0  0  0  0  0  0  0  0  0  0
   -2.4948   12.9203    0.0000 H   0  0  0  0  0  0  0  0  0  0  0  0
   -3.4748   11.4291    0.0000 H   0  0  0  0  0  0  0  0  0  0  0  0
   -0.9699   13.9074    0.0000 H   0  0  0  0  0  0  0  0  0  0  0  0
   -4.4350   12.2106    0.0000 H   0  0  0  0  0  0  0  0  0  0  0  0
   -5.5856   12.0366    0.0000 H   0  0  0  0  0  0  0  0  0  0  0  0
   -8.3481   12.7182    0.0000 H   0  0  0  0  0  0  0  0  0  0  0  0
   -8.3663   10.9338    0.0000 H   0  0  0  0  0  0  0  0  0  0  0  0
   -4.0633   12.4563    0.0000 H   0  0  0  0  0  0  0  0  0  0  0  0
   -3.1662   15.1480    0.0000 H   0  0  0  0  0  0  0  0  0  0  0  0
   -5.0913   17.4489    0.0000 H   0  0  0  0  0  0  0  0  0  0  0  0
   -8.0465   16.9322    0.0000 H   0  0  0  0  0  0  0  0  0  0  0  0
   -9.0766   14.1146    0.0000 H   0  0  0  0  0  0  0  0  0  0  0  0
   -9.5966   11.0722    0.0000 H   0  0  0  0  0  0  0  0  0  0  0  0
  -10.2882   10.3213    0.0000 H   0  0  0  0  0  0  0  0  0  0  0  0
  -13.1657    9.2004    0.0000 H   0  0  0  0  0  0  0  0  0  0  0  0
  -12.2136    7.8727    0.0000 H   0  0  0  0  0  0  0  0  0  0  0  0
  -11.8037   12.2209    0.0000 H   0  0  0  0  0  0  0  0  0  0  0  0
  -10.5586   11.1630    0.0000 H   0  0  0  0  0  0  0  0  0  0  0  0
  -14.9258   11.1115    0.0000 H   0  0  0  0  0  0  0  0  0  0  0  0
  -13.7993    9.7275    0.0000 H   0  0  0  0  0  0  0  0  0  0  0  0
  -12.6524   13.6605    0.0000 H   0  0  0  0  0  0  0  0  0  0  0  0
  -16.9476   15.0028    0.0000 H   0  0  0  0  0  0  0  0  0  0  0  0
  -14.4125   15.5715    0.0000 H   0  0  0  0  0  0  0  0  0  0  0  0
  -17.7226   12.5230    0.0000 H   0  0  0  0  0  0  0  0  0  0  0  0
  -15.9625   10.6119    0.0000 H   0  0  0  0  0  0  0  0  0  0  0  0
  -13.4173    7.1666    0.0000 H   0  0  0  0  0  0  0  0  0  0  0  0
  -13.6431    6.2049    0.0000 H   0  0  0  0  0  0  0  0  0  0  0  0
  -15.1584    5.7417    0.0000 H   0  0  0  0  0  0  0  0  0  0  0  0
  -15.4107    3.9752    0.0000 H   0  0  0  0  0  0  0  0  0  0  0  0
  -13.7952    3.2174    0.0000 H   0  0  0  0  0  0  0  0  0  0  0  0
  -14.4321    2.1558    0.0000 H   0  0  0  0  0  0  0  0  0  0  0  0
  -14.0363    1.2148    0.0000 H   0  0  0  0  0  0  0  0  0  0  0  0
  -14.2121   -1.8684    0.0000 H   0  0  0  0  0  0  0  0  0  0  0  0
  -12.6088   -1.5539    0.0000 H   0  0  0  0  0  0  0  0  0  0  0  0
  -14.9143    1.3185    0.0000 H   0  0  0  0  0  0  0  0  0  0  0  0
  -17.6167   -1.1557    0.0000 H   0  0  0  0  0  0  0  0  0  0  0  0
  -16.6816   -2.6755    0.0000 H   0  0  0  0  0  0  0  0  0  0  0  0
  -14.9548   -2.2258    0.0000 H   0  0  0  0  0  0  0  0  0  0  0  0
  -17.7933    0.0854    0.0000 H   0  0  0  0  0  0  0  0  0  0  0  0
  -17.3194    1.8058    0.0000 H   0  0  0  0  0  0  0  0  0  0  0  0
  -15.3921    1.7418    0.0000 H   0  0  0  0  0  0  0  0  0  0  0  0
  -12.5707   -2.7913    0.0000 H   0  0  0  0  0  0  0  0  0  0  0  0
   -8.9866   -5.4748    0.0000 H   0  0  0  0  0  0  0  0  0  0  0  0
  -10.1450   -4.9812    0.0000 H   0  0  0  0  0  0  0  0  0  0  0  0
   -7.5210   -6.0933    0.0000 H   0  0  0  0  0  0  0  0  0  0  0  0
   -8.5710   -5.7987    0.0000 H   0  0  0  0  0  0  0  0  0  0  0  0
   -5.6119   -6.3313    0.0000 H   0  0  0  0  0  0  0  0  0  0  0  0
   -7.0300   -6.2131    0.0000 H   0  0  0  0  0  0  0  0  0  0  0  0
   -4.6439   -6.5282    0.0000 H   0  0  0  0  0  0  0  0  0  0  0  0
  -12.3623   -4.8857    0.0000 H   0  0  0  0  0  0  0  0  0  0  0  0
  -13.1839   -3.4734    0.0000 H   0  0  0  0  0  0  0  0  0  0  0  0
  -12.2279   -2.1484    0.0000 H   0  0  0  0  0  0  0  0  0  0  0  0
  -13.1635   -4.3191    0.0000 H   0  0  0  0  0  0  0  0  0  0  0  0
  -10.6331   -6.5769    0.0000 H   0  0  0  0  0  0  0  0  0  0  0  0
  -11.0825   -9.3600    0.0000 H   0  0  0  0  0  0  0  0  0  0  0  0
  -10.4491   -7.5386    0.0000 H   0  0  0  0  0  0  0  0  0  0  0  0
  -12.8750   -9.8134    0.0000 H   0  0  0  0  0  0  0  0  0  0  0  0
  -15.4578   -7.6728    0.0000 H   0  0  0  0  0  0  0  0  0  0  0  0
  -18.0926   -8.6751    0.0000 H   0  0  0  0  0  0  0  0  0  0  0  0
  -16.4367   -7.6869    0.0000 H   0  0  0  0  0  0  0  0  0  0  0  0
  -17.6461  -11.9583    0.0000 H   0  0  0  0  0  0  0  0  0  0  0  0
  -16.3874  -11.5777    0.0000 H   0  0  0  0  0  0  0  0  0  0  0  0
  -21.1379  -11.8305    0.0000 H   0  0  0  0  0  0  0  0  0  0  0  0
  -19.4278  -13.3355    0.0000 H   0  0  0  0  0  0  0  0  0  0  0  0
  -18.1747  -10.5222    0.0000 H   0  0  0  0  0  0  0  0  0  0  0  0
  -15.5564  -12.6194    0.0000 H   0  0  0  0  0  0  0  0  0  0  0  0
  -15.4479  -13.4141    0.0000 H   0  0  0  0  0  0  0  0  0  0  0  0
  -17.8094  -16.5916    0.0000 H   0  0  0  0  0  0  0  0  0  0  0  0
  -19.3115  -15.6283    0.0000 H   0  0  0  0  0  0  0  0  0  0  0  0
  -19.1930  -14.3187    0.0000 H   0  0  0  0  0  0  0  0  0  0  0  0
  -15.7240  -16.8757    0.0000 H   0  0  0  0  0  0  0  0  0  0  0  0
  -17.3323  -16.1026    0.0000 H   0  0  0  0  0  0  0  0  0  0  0  0
  -13.7373  -16.6688    0.0000 H   0  0  0  0  0  0  0  0  0  0  0  0
  -13.1039  -14.8474    0.0000 H   0  0  0  0  0  0  0  0  0  0  0  0
  -14.6060  -13.8841    0.0000 H   0  0  0  0  0  0  0  0  0  0  0  0
  1  2  1  0
  2  3  1  0
  3  4  2  0
  4  5  1  0
  5  6  2  0
  6  7  1  0
  7  8  2  0
  7  9  1  0
  9 10  1  0
 10 11  1  0
 11 12  2  0
  9 13  1  0
 13 14  1  0
 14 15  2  0
 15 16  1  0
 16 17  2  0
 17 18  1  0
 16 19  1  0
 14 20  1  0
 20 21  1  0
 21 22  2  0
 22 23  1  0
 23 24  2  0
 24 25  1  0
 25 26  2  0
 25 27  1  0
  1 28  2  0
  1 29  1  0
 29 30  1  0
 30 31  1  0
 31 32  1  0
 32 33  2  0
 32 34  1  0
 34 35  1  0
 35 36  1  0
 36 37  1  0
 37 38  1  0
 37 39  2  0
 35 40  1  0
 40 41  2  0
 40 42  1  0
 42 43  1  0
 43 44  1  0
 44 45  1  0
 45 46  1  0
 46 47  2  0
 46 48  1  0
 43 49  1  0
 49 50  2  0
 49 51  1  0
 51 52  1  0
 52 53  1  0
 53 54  1  0
 54 55  1  0
 54 56  1  0
 52 57  1  0
 57 58  2  0
 57 59  1  0
 60 59  1  6
 60 61  1  0
 61 62  1  0
 62 63  1  0
 63 64  1  0
 64 65  1  0
 65 66  1  0
 66 67  1  0
 60 68  1  0
 60 69  1  0
 69 70  2  0
 69 71  1  0
 71 72  1  0
 72 73  1  0
 73 74  1  0
 74 75  1  0
 75 76  1  0
 76 77  1  0
 77 78  2  3
 77 79  1  0
 72 80  1  0
 80 81  2  0
 80 82  1  0
 82 83  1  0
 83 84  1  0
 84 85  1  0
 83 86  1  0
 86 87  2  0
 86 88  1  0
 88 89  1  0
 89 90  1  0
 90 91  1  0
 91 92  2  0
 92 93  1  0
 93 94  2  0
 94 95  1  0
 95 96  2  0
 89 97  1  0
 97 98  2  0
 97 99  1  0
 99100  1  0
100101  1  0
101102  1  0
102103  1  0
103104  1  0
104105  1  0
105106  2  3
105107  1  0
100108  1  0
108109  2  0
108110  1  0
110111  1  0
111112  1  0
111113  1  0
113114  2  0
113115  1  0
115116  1  0
116117  1  0
117118  1  0
118119  1  0
118120  1  0
116121  1  0
121122  2  0
121123  1  0
123124  1  0
124125  1  0
125126  1  0
126127  1  0
127128  1  0
124129  1  0
124130  1  1
130131  2  0
130132  1  0
132133  1  0
133134  1  0
134135  1  0
135136  2  0
135137  1  0
133138  1  0
138139  2  0
138140  1  0
140141  1  0
141142  1  0
142143  1  0
143144  1  0
144145  1  0
144146  2  0
141147  1  0
147148  2  0
147149  1  0
149150  1  0
150151  1  0
151152  1  0
151153  1  0
153154  1  0
150155  1  0
155156  2  0
155157  1  0
  8  3  1  0
 96 91  1  0
 11  6  1  0
 18 13  2  0
 67128  2  0
 22  9  1  0
 26 21  1  0
  2158  1  0
  4159  1  0
  5160  1  0
  8161  1  0
 15162  1  0
 17163  1  0
 18164  1  0
 19165  1  0
 23166  1  0
 24167  1  0
 26168  1  0
 27169  1  0
 29170  1  0
 30171  1  0
 30172  1  0
 31173  1  0
 31174  1  0
 34175  1  0
 35176  1  1
 36177  1  0
 36178  1  0
 38179  1  0
 38180  1  0
 42181  1  0
 43182  1  1
 44183  1  0
 44184  1  0
 45185  1  0
 45186  1  0
 51187  1  0
 52188  1  1
 53189  1  0
 53190  1  0
 54191  1  0
 55192  1  0
 55193  1  0
 55194  1  0
 56195  1  0
 56196  1  0
 56197  1  0
 59198  1  0
 61199  1  0
 61200  1  0
 62201  1  0
 62202  1  0
 63203  1  0
 63204  1  0
 64205  1  0
 64206  1  0
 65207  1  0
 65208  1  0
 66209  1  0
 66210  1  0
 67211  1  0
 68212  1  0
 68213  1  0
 68214  1  0
 71215  1  0
 72216  1  6
 73217  1  0
 73218  1  0
 74219  1  0
 74220  1  0
 75221  1  0
 75222  1  0
 76223  1  0
 78224  1  0
 78225  1  0
 79226  1  0
 79227  1  0
 82228  1  0
 83229  1  6
 84230  1  0
 84231  1  0
 85232  1  0
 88233  1  0
 89234  1  6
 90235  1  0
 90236  1  0
 92237  1  0
 93238  1  0
 94239  1  0
 95240  1  0
 96241  1  0
 99242  1  0
100243  1  6
101244  1  0
101245  1  0
102246  1  0
102247  1  0
103248  1  0
103249  1  0
104250  1  0
106251  1  0
106252  1  0
107253  1  0
107254  1  0
110255  1  0
111256  1  6
112257  1  0
112258  1  0
112259  1  0
115260  1  0
116261  1  6
117262  1  0
117263  1  0
118264  1  0
119265  1  0
119266  1  0
119267  1  0
120268  1  0
120269  1  0
120270  1  0
123271  1  0
125272  1  0
125273  1  0
126274  1  0
126275  1  0
127276  1  0
127277  1  0
128278  1  0
129279  1  0
129280  1  0
129281  1  0
132282  1  0
133283  1  1
134284  1  0
134285  1  0
140286  1  0
141287  1  6
142288  1  0
142289  1  0
143290  1  0
143291  1  0
145292  1  0
145293  1  0
149294  1  0
150295  1  1
151296  1  1
152297  1  0
152298  1  0
152299  1  0
153300  1  0
153301  1  0
154302  1  0
154303  1  0
154304  1  0
M  CHG  5  48  -1  78   1 106   1 137  -1 157  -1
M  END
