
     RDKit          2D

340348  0  0  0  0  0  0  0  0999 V2000
   22.0103   -2.8981    0.0000 C   0  0  0  0  0  0  0  0  0  0  0  0
   23.4976   -2.7037    0.0000 N   0  0  0  0  0  0  0  0  0  0  0  0
   24.4097   -3.8945    0.0000 C   0  0  0  0  0  0  0  0  0  0  0  0
   23.8344   -5.2798    0.0000 C   0  0  0  0  0  0  0  0  0  0  0  0
   24.7464   -6.4707    0.0000 C   0  0  0  0  0  0  0  0  0  0  0  0
   26.2338   -6.2763    0.0000 C   0  0  0  0  0  0  0  0  0  0  0  0
   26.8091   -4.8910    0.0000 C   0  0  0  0  0  0  0  0  0  0  0  0
   25.8970   -3.7001    0.0000 C   0  0  0  0  0  0  0  0  0  0  0  0
   28.3043   -5.0101    0.0000 C   0  0  0  0  0  0  0  0  0  0  0  0
   28.6531   -6.4690    0.0000 O   0  0  0  0  0  0  0  0  0  0  0  0
   27.3735   -7.2515    0.0000 C   0  0  0  0  0  0  0  0  0  0  0  0
   27.2544   -8.7468    0.0000 O   0  0  0  0  0  0  0  0  0  0  0  0
   29.7790   -5.2848    0.0000 C   0  0  0  0  0  0  0  0  0  0  0  0
   30.7542   -4.1451    0.0000 C   0  0  0  0  0  0  0  0  0  0  0  0
   32.2288   -4.4198    0.0000 C   0  0  0  0  0  0  0  0  0  0  0  0
   32.7282   -5.8342    0.0000 C   0  0  0  0  0  0  0  0  0  0  0  0
   31.7530   -6.9739    0.0000 C   0  0  0  0  0  0  0  0  0  0  0  0
   30.2784   -6.6992    0.0000 C   0  0  0  0  0  0  0  0  0  0  0  0
   34.2028   -6.1090    0.0000 O   0  0  0  0  0  0  0  0  0  0  0  0
   30.2548   -2.7307    0.0000 O   0  0  0  0  0  0  0  0  0  0  0  0
   28.7802   -2.4560    0.0000 C   0  0  0  0  0  0  0  0  0  0  0  0
   27.8049   -3.5957    0.0000 C   0  0  0  0  0  0  0  0  0  0  0  0
   26.7854   -2.7891    0.0000 C   0  0  0  0  0  0  0  0  0  0  0  0
   26.5191   -2.0347    0.0000 C   0  0  0  0  0  0  0  0  0  0  0  0
   27.0392   -1.4269    0.0000 C   0  0  0  0  0  0  0  0  0  0  0  0
   27.8257   -1.5734    0.0000 C   0  0  0  0  0  0  0  0  0  0  0  0
   26.3067    0.6476    0.0000 O   0  0  0  0  0  0  0  0  0  0  0  0
   21.4350   -4.2834    0.0000 S   0  0  0  0  0  0  0  0  0  0  0  0
   21.0982   -1.7072    0.0000 N   0  0  0  0  0  0  0  0  0  0  0  0
   19.6109   -1.9016    0.0000 C   0  0  0  0  0  0  0  0  0  0  0  0
   18.6989   -0.7108    0.0000 C   0  0  0  0  0  0  0  0  0  0  0  0
   17.2115   -0.9052    0.0000 C   0  0  0  0  0  0  0  0  0  0  0  0
   17.0930   -1.6935    0.0000 O   0  0  0  0  0  0  0  0  0  0  0  0
   16.2995    0.2857    0.0000 N   0  0  0  0  0  0  0  0  0  0  0  0
   14.8121    0.0913    0.0000 C   0  0  0  0  0  0  0  0  0  0  0  0
   15.2619   -1.3397    0.0000 C   0  0  0  0  0  0  0  0  0  0  0  0
   16.7260   -1.6657    0.0000 C   0  0  0  0  0  0  0  0  0  0  0  0
   17.1757   -3.0967    0.0000 C   0  0  0  0  0  0  0  0  0  0  0  0
   18.2133   -1.4713    0.0000 C   0  0  0  0  0  0  0  0  0  0  0  0
   13.3480    0.4173    0.0000 C   0  0  0  0  0  0  0  0  0  0  0  0
   12.4758   -0.8031    0.0000 O   0  0  0  0  0  0  0  0  0  0  0  0
   12.8982    1.8483    0.0000 N   0  0  0  0  0  0  0  0  0  0  0  0
   11.4341    2.1743    0.0000 C   0  0  0  0  0  0  0  0  0  0  0  0
   11.3673    0.6758    0.0000 C   0  0  0  0  0  0  0  0  0  0  0  0
   12.5238   -0.2794    0.0000 O   0  0  0  0  0  0  0  0  0  0  0  0
   10.1698    2.9814    0.0000 C   0  0  0  0  0  0  0  0  0  0  0  0
    9.1749    1.8588    0.0000 O   0  0  0  0  0  0  0  0  0  0  0  0
   10.2366    4.4800    0.0000 N   0  0  0  0  0  0  0  0  0  0  0  0
    8.9722    5.2871    0.0000 C   0  0  0  0  0  0  0  0  0  0  0  0
    8.7566    3.8027    0.0000 C   0  0  0  0  0  0  0  0  0  0  0  0
    8.1129    2.4478    0.0000 C   0  0  0  0  0  0  0  0  0  0  0  0
    7.0985    1.3428    0.0000 C   0  0  0  0  0  0  0  0  0  0  0  0
    5.8035    0.5859    0.0000 C   0  0  0  0  0  0  0  0  0  0  0  0
   10.2279    6.1076    0.0000 C   0  0  0  0  0  0  0  0  0  0  0  0
    8.7408    6.7691    0.0000 C   0  0  0  0  0  0  0  0  0  0  0  0
   10.1718    7.2188    0.0000 O   0  0  0  0  0  0  0  0  0  0  0  0
    8.0828    8.1171    0.0000 N   0  0  0  0  0  0  0  0  0  0  0  0
    7.0567    9.2112    0.0000 C   0  0  0  0  0  0  0  0  0  0  0  0
    7.1982   10.7046    0.0000 C   0  0  0  0  0  0  0  0  0  0  0  0
    8.5621   11.3287    0.0000 C   0  0  0  0  0  0  0  0  0  0  0  0
    8.7036   12.8221    0.0000 C   0  0  0  0  0  0  0  0  0  0  0  0
   10.0675   13.4462    0.0000 O   0  0  0  0  0  0  0  0  0  0  0  0
    7.4810   13.6912    0.0000 O   0  0  0  0  0  0  0  0  0  0  0  0
    5.7537    9.9543    0.0000 C   0  0  0  0  0  0  0  0  0  0  0  0
    6.2943   11.3535    0.0000 O   0  0  0  0  0  0  0  0  0  0  0  0
    4.2896   10.2803    0.0000 N   0  0  0  0  0  0  0  0  0  0  0  0
    2.7944   10.1603    0.0000 C   0  0  0  0  0  0  0  0  0  0  0  0
    1.7151   11.2020    0.0000 C   0  0  0  0  0  0  0  0  0  0  0  0
    0.3445   11.8116    0.0000 O   0  0  0  0  0  0  0  0  0  0  0  0
    2.0775   12.6575    0.0000 C   0  0  0  0  0  0  0  0  0  0  0  0
    1.4010    9.6049    0.0000 C   0  0  0  0  0  0  0  0  0  0  0  0
    0.6441   10.8999    0.0000 O   0  0  0  0  0  0  0  0  0  0  0  0
    0.2333    8.6635    0.0000 N   0  0  0  0  0  0  0  0  0  0  0  0
   -0.6051    7.4196    0.0000 C   0  0  0  0  0  0  0  0  0  0  0  0
   -2.0925    7.2252    0.0000 C   0  0  0  0  0  0  0  0  0  0  0  0
   -1.0397    5.9839    0.0000 C   0  0  0  0  0  0  0  0  0  0  0  0
   -2.3481    6.7174    0.0000 O   0  0  0  0  0  0  0  0  0  0  0  0
   -1.0317    4.4840    0.0000 N   0  0  0  0  0  0  0  0  0  0  0  0
   -0.5820    3.0530    0.0000 C   0  0  0  0  0  0  0  0  0  0  0  0
    0.2696    1.8181    0.0000 C   0  0  0  0  0  0  0  0  0  0  0  0
    1.4473    0.8891    0.0000 C   0  0  0  0  0  0  0  0  0  0  0  0
    2.8465    0.3485    0.0000 C   0  0  0  0  0  0  0  0  0  0  0  0
    4.3429    0.2444    0.0000 C   0  0  0  0  0  0  0  0  0  0  0  0
   -0.0551    1.6486    0.0000 C   0  0  0  0  0  0  0  0  0  0  0  0
    0.1965    0.1698    0.0000 C   0  0  0  0  0  0  0  0  0  0  0  0
    0.1636   -1.3298    0.0000 C   0  0  0  0  0  0  0  0  0  0  0  0
   -0.1524   -2.7962    0.0000 C   0  0  0  0  0  0  0  0  0  0  0  0
   -1.3651    4.3323    0.0000 C   0  0  0  0  0  0  0  0  0  0  0  0
   -0.1660    5.2335    0.0000 O   0  0  0  0  0  0  0  0  0  0  0  0
   -2.3762    5.4403    0.0000 N   0  0  0  0  0  0  0  0  0  0  0  0
   -3.5787    6.3369    0.0000 C   0  0  0  0  0  0  0  0  0  0  0  0
   -3.5935    7.8369    0.0000 C   0  0  0  0  0  0  0  0  0  0  0  0
   -4.8998    8.5740    0.0000 C   0  0  0  0  0  0  0  0  0  0  0  0
   -4.9146   10.0740    0.0000 O   0  0  0  0  0  0  0  0  0  0  0  0
   -6.3376    8.1465    0.0000 O   0  0  0  0  0  0  0  0  0  0  0  0
   -4.9292    6.9898    0.0000 C   0  0  0  0  0  0  0  0  0  0  0  0
   -4.7635    8.4806    0.0000 O   0  0  0  0  0  0  0  0  0  0  0  0
   -6.3788    7.3752    0.0000 N   0  0  0  0  0  0  0  0  0  0  0  0
   -7.8752    7.4794    0.0000 C   0  0  0  0  0  0  0  0  0  0  0  0
   -8.6986    8.7332    0.0000 C   0  0  0  0  0  0  0  0  0  0  0  0
   -8.0244   10.0732    0.0000 C   0  0  0  0  0  0  0  0  0  0  0  0
   -8.8477   11.3270    0.0000 C   0  0  0  0  0  0  0  0  0  0  0  0
   -6.9326   11.1017    0.0000 C   0  0  0  0  0  0  0  0  0  0  0  0
   -9.3643    7.2985    0.0000 C   0  0  0  0  0  0  0  0  0  0  0  0
   -9.8621    8.7134    0.0000 O   0  0  0  0  0  0  0  0  0  0  0  0
  -10.7922    6.8390    0.0000 N   0  0  0  0  0  0  0  0  0  0  0  0
  -12.1073    6.1176    0.0000 C   0  0  0  0  0  0  0  0  0  0  0  0
  -13.4778    6.7273    0.0000 C   0  0  0  0  0  0  0  0  0  0  0  0
  -13.6351    8.2190    0.0000 C   0  0  0  0  0  0  0  0  0  0  0  0
  -12.5207    9.2231    0.0000 C   0  0  0  0  0  0  0  0  0  0  0  0
  -13.1313   10.5932    0.0000 N   0  0  0  0  0  0  0  0  0  0  0  0
  -14.6230   10.4359    0.0000 C   0  0  0  0  0  0  0  0  0  0  0  0
  -15.7380   11.4393    0.0000 C   0  0  0  0  0  0  0  0  0  0  0  0
  -17.1645   10.9753    0.0000 C   0  0  0  0  0  0  0  0  0  0  0  0
  -17.4759    9.5080    0.0000 C   0  0  0  0  0  0  0  0  0  0  0  0
  -16.3608    8.5046    0.0000 C   0  0  0  0  0  0  0  0  0  0  0  0
  -14.9344    8.9686    0.0000 C   0  0  0  0  0  0  0  0  0  0  0  0
  -13.2622    5.1604    0.0000 C   0  0  0  0  0  0  0  0  0  0  0  0
  -14.4460    6.0816    0.0000 O   0  0  0  0  0  0  0  0  0  0  0  0
  -14.2150    4.0019    0.0000 N   0  0  0  0  0  0  0  0  0  0  0  0
  -14.9314    2.6840    0.0000 C   0  0  0  0  0  0  0  0  0  0  0  0
  -16.4139    2.4559    0.0000 C   0  0  0  0  0  0  0  0  0  0  0  0
  -17.3527    3.6258    0.0000 C   0  0  0  0  0  0  0  0  0  0  0  0
  -18.8353    3.3978    0.0000 C   0  0  0  0  0  0  0  0  0  0  0  0
  -19.7741    4.5677    0.0000 C   0  0  0  0  0  0  0  0  0  0  0  0
  -21.2566    4.3396    0.0000 N   0  0  0  0  0  0  0  0  0  0  0  0
  -15.3854    1.2544    0.0000 C   0  0  0  0  0  0  0  0  0  0  0  0
  -16.8793    1.3893    0.0000 O   0  0  0  0  0  0  0  0  0  0  0  0
  -15.5606   -0.2354    0.0000 N   0  0  0  0  0  0  0  0  0  0  0  0
  -15.4507   -1.7313    0.0000 C   0  0  0  0  0  0  0  0  0  0  0  0
  -16.5746   -2.7247    0.0000 C   0  0  0  0  0  0  0  0  0  0  0  0
  -17.9969   -2.2481    0.0000 C   0  0  0  0  0  0  0  0  0  0  0  0
  -19.1208   -3.2415    0.0000 C   0  0  0  0  0  0  0  0  0  0  0  0
  -19.1704   -1.3138    0.0000 C   0  0  0  0  0  0  0  0  0  0  0  0
  -15.0597   -3.1795    0.0000 C   0  0  0  0  0  0  0  0  0  0  0  0
  -16.3895   -3.8736    0.0000 O   0  0  0  0  0  0  0  0  0  0  0  0
  -14.4018   -4.5275    0.0000 N   0  0  0  0  0  0  0  0  0  0  0  0
  -13.5005   -5.7266    0.0000 C   0  0  0  0  0  0  0  0  0  0  0  0
  -13.9090   -7.1699    0.0000 C   0  0  0  0  0  0  0  0  0  0  0  0
  -15.3631   -7.5379    0.0000 C   0  0  0  0  0  0  0  0  0  0  0  0
  -15.7715   -8.9812    0.0000 C   0  0  0  0  0  0  0  0  0  0  0  0
  -16.8555   -7.3863    0.0000 C   0  0  0  0  0  0  0  0  0  0  0  0
  -12.3887   -6.7334    0.0000 C   0  0  0  0  0  0  0  0  0  0  0  0
  -13.1321   -8.0363    0.0000 O   0  0  0  0  0  0  0  0  0  0  0  0
  -11.1064   -7.5117    0.0000 N   0  0  0  0  0  0  0  0  0  0  0  0
   -9.7000   -8.0332    0.0000 C   0  0  0  0  0  0  0  0  0  0  0  0
   -8.2203   -8.2791    0.0000 C   0  0  0  0  0  0  0  0  0  0  0  0
   -6.7208   -8.2406    0.0000 C   0  0  0  0  0  0  0  0  0  0  0  0
   -5.2557   -7.9189    0.0000 C   0  0  0  0  0  0  0  0  0  0  0  0
   -3.8779   -7.3258    0.0000 C   0  0  0  0  0  0  0  0  0  0  0  0
   -2.6373   -6.4827    0.0000 C   0  0  0  0  0  0  0  0  0  0  0  0
   -1.5786   -5.4200    0.0000 C   0  0  0  0  0  0  0  0  0  0  0  0
   -0.7402   -4.1762    0.0000 C   0  0  0  0  0  0  0  0  0  0  0  0
  -10.7918   -9.0618    0.0000 C   0  0  0  0  0  0  0  0  0  0  0  0
   -9.2632   -9.4682    0.0000 C   0  0  0  0  0  0  0  0  0  0  0  0
   -7.9276  -10.1510    0.0000 O   0  0  0  0  0  0  0  0  0  0  0  0
  -10.2876  -10.5640    0.0000 N   0  0  0  0  0  0  0  0  0  0  0  0
   -9.8509  -11.9990    0.0000 C   0  0  0  0  0  0  0  0  0  0  0  0
   -8.9497  -13.1981    0.0000 C   0  0  0  0  0  0  0  0  0  0  0  0
   -9.5375  -14.5781    0.0000 C   0  0  0  0  0  0  0  0  0  0  0  0
   -8.6363  -15.7772    0.0000 C   0  0  0  0  0  0  0  0  0  0  0  0
   -9.0515  -17.2185    0.0000 O   0  0  0  0  0  0  0  0  0  0  0  0
   -7.1473  -15.5962    0.0000 O   0  0  0  0  0  0  0  0  0  0  0  0
  -10.8753  -13.0947    0.0000 C   0  0  0  0  0  0  0  0  0  0  0  0
  -12.3364  -12.7554    0.0000 O   0  0  0  0  0  0  0  0  0  0  0  0
  -10.4385  -14.5297    0.0000 N   0  0  0  0  0  0  0  0  0  0  0  0
  -11.4629  -15.6254    0.0000 C   0  0  0  0  0  0  0  0  0  0  0  0
  -12.8003  -16.3047    0.0000 C   0  0  0  0  0  0  0  0  0  0  0  0
  -14.0572  -15.4862    0.0000 C   0  0  0  0  0  0  0  0  0  0  0  0
  -15.3946  -16.1655    0.0000 N   0  0  0  0  0  0  0  0  0  0  0  0
  -13.9768  -13.9883    0.0000 O   0  0  0  0  0  0  0  0  0  0  0  0
  -11.0262  -17.0605    0.0000 C   0  0  0  0  0  0  0  0  0  0  0  0
  -11.9093  -18.2729    0.0000 O   0  0  0  0  0  0  0  0  0  0  0  0
   -9.6173  -17.5753    0.0000 O   0  0  0  0  0  0  0  0  0  0  0  0
   23.8998   -1.2586    0.0000 H   0  0  0  0  0  0  0  0  0  0  0  0
   22.3470   -5.4742    0.0000 H   0  0  0  0  0  0  0  0  0  0  0  0
   24.1711   -7.8560    0.0000 H   0  0  0  0  0  0  0  0  0  0  0  0
   26.1200   -2.2168    0.0000 H   0  0  0  0  0  0  0  0  0  0  0  0
   33.2040   -3.2801    0.0000 H   0  0  0  0  0  0  0  0  0  0  0  0
   32.2524   -8.3884    0.0000 H   0  0  0  0  0  0  0  0  0  0  0  0
   29.3031   -7.8389    0.0000 H   0  0  0  0  0  0  0  0  0  0  0  0
   34.7022   -7.5234    0.0000 H   0  0  0  0  0  0  0  0  0  0  0  0
   25.3551   -4.4606    0.0000 H   0  0  0  0  0  0  0  0  0  0  0  0
   24.4008   -1.4541    0.0000 H   0  0  0  0  0  0  0  0  0  0  0  0
   29.2560    0.0982    0.0000 H   0  0  0  0  0  0  0  0  0  0  0  0
   27.2820    1.7873    0.0000 H   0  0  0  0  0  0  0  0  0  0  0  0
   21.6736   -0.3219    0.0000 H   0  0  0  0  0  0  0  0  0  0  0  0
   20.0606   -3.3326    0.0000 H   0  0  0  0  0  0  0  0  0  0  0  0
   18.4866   -2.8946    0.0000 H   0  0  0  0  0  0  0  0  0  0  0  0
   19.9358    0.1377    0.0000 H   0  0  0  0  0  0  0  0  0  0  0  0
   18.4269    0.7644    0.0000 H   0  0  0  0  0  0  0  0  0  0  0  0
   16.8748    1.6710    0.0000 H   0  0  0  0  0  0  0  0  0  0  0  0
   14.8789    1.5898    0.0000 H   0  0  0  0  0  0  0  0  0  0  0  0
   15.0129   -2.8189    0.0000 H   0  0  0  0  0  0  0  0  0  0  0  0
   13.7745   -1.5341    0.0000 H   0  0  0  0  0  0  0  0  0  0  0  0
   17.1534   -0.2279    0.0000 H   0  0  0  0  0  0  0  0  0  0  0  0
   18.5175   -3.7673    0.0000 H   0  0  0  0  0  0  0  0  0  0  0  0
   17.1089   -4.5952    0.0000 H   0  0  0  0  0  0  0  0  0  0  0  0
   15.7232   -3.4710    0.0000 H   0  0  0  0  0  0  0  0  0  0  0  0
   19.1254   -2.6622    0.0000 H   0  0  0  0  0  0  0  0  0  0  0  0
   19.6189   -0.9473    0.0000 H   0  0  0  0  0  0  0  0  0  0  0  0
   17.5925   -0.1058    0.0000 H   0  0  0  0  0  0  0  0  0  0  0  0
   13.9127    2.9533    0.0000 H   0  0  0  0  0  0  0  0  0  0  0  0
   12.0094    3.5596    0.0000 H   0  0  0  0  0  0  0  0  0  0  0  0
   10.7920   -0.7095    0.0000 H   0  0  0  0  0  0  0  0  0  0  0  0
    9.9031    1.0018    0.0000 H   0  0  0  0  0  0  0  0  0  0  0  0
   12.5648   -1.6298    0.0000 H   0  0  0  0  0  0  0  0  0  0  0  0
   11.6421    5.0039    0.0000 H   0  0  0  0  0  0  0  0  0  0  0  0
   10.2556    3.8554    0.0000 H   0  0  0  0  0  0  0  0  0  0  0  0
    9.5801    2.5490    0.0000 H   0  0  0  0  0  0  0  0  0  0  0  0
    9.4232    1.7176    0.0000 H   0  0  0  0  0  0  0  0  0  0  0  0
    8.8666    1.1509    0.0000 H   0  0  0  0  0  0  0  0  0  0  0  0
    8.4550    0.7025    0.0000 H   0  0  0  0  0  0  0  0  0  0  0  0
    7.2558   -0.1489    0.0000 H   0  0  0  0  0  0  0  0  0  0  0  0
    6.3589   -0.8075    0.0000 H   0  0  0  0  0  0  0  0  0  0  0  0
   11.6389    5.5985    0.0000 H   0  0  0  0  0  0  0  0  0  0  0  0
   11.1273    7.3081    0.0000 H   0  0  0  0  0  0  0  0  0  0  0  0
    9.4971    7.4175    0.0000 H   0  0  0  0  0  0  0  0  0  0  0  0
    9.3177    8.9686    0.0000 H   0  0  0  0  0  0  0  0  0  0  0  0
    8.5246    9.5199    0.0000 H   0  0  0  0  0  0  0  0  0  0  0  0
    6.8203   12.1562    0.0000 H   0  0  0  0  0  0  0  0  0  0  0  0
    5.7184   10.9499    0.0000 H   0  0  0  0  0  0  0  0  0  0  0  0
   10.0573   11.4488    0.0000 H   0  0  0  0  0  0  0  0  0  0  0  0
    9.1141    9.9340    0.0000 H   0  0  0  0  0  0  0  0  0  0  0  0
    4.3937   11.7767    0.0000 H   0  0  0  0  0  0  0  0  0  0  0  0
    3.4683   11.5004    0.0000 H   0  0  0  0  0  0  0  0  0  0  0  0
    0.6006   10.1980    0.0000 H   0  0  0  0  0  0  0  0  0  0  0  0
    0.0066   13.2731    0.0000 H   0  0  0  0  0  0  0  0  0  0  0  0
    1.1332   13.8230    0.0000 H   0  0  0  0  0  0  0  0  0  0  0  0
    2.9159   13.9013    0.0000 H   0  0  0  0  0  0  0  0  0  0  0  0
    3.5121   12.2195    0.0000 H   0  0  0  0  0  0  0  0  0  0  0  0
   -0.8717    9.6779    0.0000 H   0  0  0  0  0  0  0  0  0  0  0  0
   -1.3941    8.6954    0.0000 H   0  0  0  0  0  0  0  0  0  0  0  0
   -2.8749    8.5182    0.0000 H   0  0  0  0  0  0  0  0  0  0  0  0
   -3.5514    6.8765    0.0000 H   0  0  0  0  0  0  0  0  0  0  0  0
   -2.1856    5.7281    0.0000 H   0  0  0  0  0  0  0  0  0  0  0  0
   -2.5137    4.2525    0.0000 H   0  0  0  0  0  0  0  0  0  0  0  0
    0.0873    0.3292    0.0000 H   0  0  0  0  0  0  0  0  0  0  0  0
   -1.2062    1.5498    0.0000 H   0  0  0  0  0  0  0  0  0  0  0  0
    1.7120   -0.5873    0.0000 H   0  0  0  0  0  0  0  0  0  0  0  0
    0.4524   -0.2335    0.0000 H   0  0  0  0  0  0  0  0  0  0  0  0
    3.3670   -1.0583    0.0000 H   0  0  0  0  0  0  0  0  0  0  0  0
    2.2267   -1.0174    0.0000 H   0  0  0  0  0  0  0  0  0  0  0  0
    4.4629   -1.2508    0.0000 H   0  0  0  0  0  0  0  0  0  0  0  0
    0.9693    2.7443    0.0000 H   0  0  0  0  0  0  0  0  0  0  0  0
    1.3183    1.0454    0.0000 H   0  0  0  0  0  0  0  0  0  0  0  0
    1.6453    0.5584    0.0000 H   0  0  0  0  0  0  0  0  0  0  0  0
    1.4309   -0.6824    0.0000 H   0  0  0  0  0  0  0  0  0  0  0  0
    1.6598   -1.2225    0.0000 H   0  0  0  0  0  0  0  0  0  0  0  0
    1.3371   -2.2642    0.0000 H   0  0  0  0  0  0  0  0  0  0  0  0
    1.2772   -3.2502    0.0000 H   0  0  0  0  0  0  0  0  0  0  0  0
   -1.5124    6.6666    0.0000 H   0  0  0  0  0  0  0  0  0  0  0  0
   -2.3341    7.1742    0.0000 H   0  0  0  0  0  0  0  0  0  0  0  0
   -3.2705    9.3017    0.0000 H   0  0  0  0  0  0  0  0  0  0  0  0
   -2.1138    7.5909    0.0000 H   0  0  0  0  0  0  0  0  0  0  0  0
   -5.9544    8.8139    0.0000 H   0  0  0  0  0  0  0  0  0  0  0  0
   -6.9653    8.6719    0.0000 H   0  0  0  0  0  0  0  0  0  0  0  0
   -9.9011    9.6298    0.0000 H   0  0  0  0  0  0  0  0  0  0  0  0
  -10.0068    7.9994    0.0000 H   0  0  0  0  0  0  0  0  0  0  0  0
   -6.6406    9.4942    0.0000 H   0  0  0  0  0  0  0  0  0  0  0  0
   -8.3419   12.7392    0.0000 H   0  0  0  0  0  0  0  0  0  0  0  0
  -10.0502   12.2236    0.0000 H   0  0  0  0  0  0  0  0  0  0  0  0
  -10.0568   10.4392    0.0000 H   0  0  0  0  0  0  0  0  0  0  0  0
   -7.0969   12.5927    0.0000 H   0  0  0  0  0  0  0  0  0  0  0  0
   -5.5548   11.6948    0.0000 H   0  0  0  0  0  0  0  0  0  0  0  0
   -6.1092    9.8479    0.0000 H   0  0  0  0  0  0  0  0  0  0  0  0
  -11.2129    8.2788    0.0000 H   0  0  0  0  0  0  0  0  0  0  0  0
  -12.1697    7.6163    0.0000 H   0  0  0  0  0  0  0  0  0  0  0  0
  -14.9504    7.0131    0.0000 H   0  0  0  0  0  0  0  0  0  0  0  0
  -14.1817    5.4027    0.0000 H   0  0  0  0  0  0  0  0  0  0  0  0
  -11.0264    9.0929    0.0000 H   0  0  0  0  0  0  0  0  0  0  0  0
  -12.3817   11.8925    0.0000 H   0  0  0  0  0  0  0  0  0  0  0  0
  -15.4266   12.9066    0.0000 H   0  0  0  0  0  0  0  0  0  0  0  0
  -18.2795   11.9786    0.0000 H   0  0  0  0  0  0  0  0  0  0  0  0
  -18.9023    9.0440    0.0000 H   0  0  0  0  0  0  0  0  0  0  0  0
  -16.6722    7.0373    0.0000 H   0  0  0  0  0  0  0  0  0  0  0  0
  -15.3474    4.9856    0.0000 H   0  0  0  0  0  0  0  0  0  0  0  0
  -15.6381    4.0071    0.0000 H   0  0  0  0  0  0  0  0  0  0  0  0
  -17.7291    1.7345    0.0000 H   0  0  0  0  0  0  0  0  0  0  0  0
  -16.2899    0.9611    0.0000 H   0  0  0  0  0  0  0  0  0  0  0  0
  -17.6580    5.0944    0.0000 H   0  0  0  0  0  0  0  0  0  0  0  0
  -16.2512    4.6440    0.0000 H   0  0  0  0  0  0  0  0  0  0  0  0
  -20.0527    2.5214    0.0000 H   0  0  0  0  0  0  0  0  0  0  0  0
  -18.5300    1.9292    0.0000 H   0  0  0  0  0  0  0  0  0  0  0  0
  -20.2561    5.9881    0.0000 H   0  0  0  0  0  0  0  0  0  0  0  0
  -18.5567    5.4440    0.0000 H   0  0  0  0  0  0  0  0  0  0  0  0
  -22.1954    5.5095    0.0000 H   0  0  0  0  0  0  0  0  0  0  0  0
  -22.5718    3.6182    0.0000 H   0  0  0  0  0  0  0  0  0  0  0  0
  -20.9513    2.8710    0.0000 H   0  0  0  0  0  0  0  0  0  0  0  0
  -17.0451   -0.0200    0.0000 H   0  0  0  0  0  0  0  0  0  0  0  0
  -16.7606   -1.0004    0.0000 H   0  0  0  0  0  0  0  0  0  0  0  0
  -17.2910   -4.0426    0.0000 H   0  0  0  0  0  0  0  0  0  0  0  0
  -15.6621   -3.9153    0.0000 H   0  0  0  0  0  0  0  0  0  0  0  0
  -17.6207   -0.7960    0.0000 H   0  0  0  0  0  0  0  0  0  0  0  0
  -20.5906   -2.9418    0.0000 H   0  0  0  0  0  0  0  0  0  0  0  0
  -19.8372   -4.5594    0.0000 H   0  0  0  0  0  0  0  0  0  0  0  0
  -18.0700   -4.3119    0.0000 H   0  0  0  0  0  0  0  0  0  0  0  0
  -20.6228   -1.6886    0.0000 H   0  0  0  0  0  0  0  0  0  0  0  0
  -19.9535   -0.0345    0.0000 H   0  0  0  0  0  0  0  0  0  0  0  0
  -18.0465   -0.3204    0.0000 H   0  0  0  0  0  0  0  0  0  0  0  0
  -15.7670   -5.1488    0.0000 H   0  0  0  0  0  0  0  0  0  0  0  0
  -14.9977   -5.8198    0.0000 H   0  0  0  0  0  0  0  0  0  0  0  0
  -13.7991   -8.6659    0.0000 H   0  0  0  0  0  0  0  0  0  0  0  0
  -12.4977   -7.6781    0.0000 H   0  0  0  0  0  0  0  0  0  0  0  0
  -15.8317   -6.1129    0.0000 H   0  0  0  0  0  0  0  0  0  0  0  0
  -17.1700   -9.5237    0.0000 H   0  0  0  0  0  0  0  0  0  0  0  0
  -15.6617  -10.4772    0.0000 H   0  0  0  0  0  0  0  0  0  0  0  0
  -14.3088   -9.3135    0.0000 H   0  0  0  0  0  0  0  0  0  0  0  0
  -17.8746   -8.4868    0.0000 H   0  0  0  0  0  0  0  0  0  0  0  0
  -18.2059   -6.7334    0.0000 H   0  0  0  0  0  0  0  0  0  0  0  0
  -16.4470   -5.9429    0.0000 H   0  0  0  0  0  0  0  0  0  0  0  0
  -11.9190   -8.7725    0.0000 H   0  0  0  0  0  0  0  0  0  0  0  0
   -7.5198   -9.6056    0.0000 H   0  0  0  0  0  0  0  0  0  0  0  0
   -8.7772   -9.6719    0.0000 H   0  0  0  0  0  0  0  0  0  0  0  0
   -5.9316   -9.5162    0.0000 H   0  0  0  0  0  0  0  0  0  0  0  0
   -7.0041   -9.7136    0.0000 H   0  0  0  0  0  0  0  0  0  0  0  0
   -4.2393   -9.0221    0.0000 H   0  0  0  0  0  0  0  0  0  0  0  0
   -5.4379   -9.4078    0.0000 H   0  0  0  0  0  0  0  0  0  0  0  0
   -2.6711   -8.2167    0.0000 H   0  0  0  0  0  0  0  0  0  0  0  0
   -3.7751   -8.8223    0.0000 H   0  0  0  0  0  0  0  0  0  0  0  0
   -1.2837   -7.1291    0.0000 H   0  0  0  0  0  0  0  0  0  0  0  0
   -2.2531   -7.9327    0.0000 H   0  0  0  0  0  0  0  0  0  0  0  0
   -0.0919   -5.6189    0.0000 H   0  0  0  0  0  0  0  0  0  0  0  0
   -0.9270   -6.7711    0.0000 H   0  0  0  0  0  0  0  0  0  0  0  0
    0.5776   -4.8925    0.0000 H   0  0  0  0  0  0  0  0  0  0  0  0
  -10.8104  -10.5616    0.0000 H   0  0  0  0  0  0  0  0  0  0  0  0
  -12.1695   -9.6549    0.0000 H   0  0  0  0  0  0  0  0  0  0  0  0
  -11.8941   -8.0444    0.0000 H   0  0  0  0  0  0  0  0  0  0  0  0
  -11.7792  -10.4053    0.0000 H   0  0  0  0  0  0  0  0  0  0  0  0
   -8.5135  -11.3197    0.0000 H   0  0  0  0  0  0  0  0  0  0  0  0
   -7.6927  -14.0166    0.0000 H   0  0  0  0  0  0  0  0  0  0  0  0
   -7.9253  -12.1023    0.0000 H   0  0  0  0  0  0  0  0  0  0  0  0
  -10.5619  -15.6738    0.0000 H   0  0  0  0  0  0  0  0  0  0  0  0
  -11.0316  -14.4456    0.0000 H   0  0  0  0  0  0  0  0  0  0  0  0
   -9.1029  -15.2125    0.0000 H   0  0  0  0  0  0  0  0  0  0  0  0
  -12.3641  -14.4263    0.0000 H   0  0  0  0  0  0  0  0  0  0  0  0
  -13.8247  -17.4005    0.0000 H   0  0  0  0  0  0  0  0  0  0  0  0
  -12.0519  -17.6047    0.0000 H   0  0  0  0  0  0  0  0  0  0  0  0
  -16.6516  -15.3469    0.0000 H   0  0  0  0  0  0  0  0  0  0  0  0
  -15.4750  -17.6633    0.0000 H   0  0  0  0  0  0  0  0  0  0  0  0
  1  2  1  0
  2  3  1  0
  3  4  2  0
  4  5  1  0
  5  6  2  0
  6  7  1  0
  7  8  2  0
  7  9  1  0
  9 10  1  0
 10 11  1  0
 11 12  2  0
  9 13  1  0
 13 14  1  0
 14 15  2  0
 15 16  1  0
 16 17  2  0
 17 18  1  0
 16 19  1  0
 14 20  1  0
 20 21  1  0
 21 22  2  0
 22 23  1  0
 23 24  2  0
 24 25  1  0
 25 26  2  0
 25 27  1  0
  1 28  2  0
  1 29  1  0
 29 30  1  0
 30 31  1  0
 31 32  1  0
 32 33  2  0
 32 34  1  0
 34 35  1  0
 35 36  1  0
 36 37  1  0
 37 38  1  0
 37 39  1  0
 35 40  1  0
 40 41  2  0
 40 42  1  0
 42 43  1  0
 43 44  1  0
 44 45  1  0
 43 46  1  0
 46 47  2  0
 46 48  1  0
 49 48  1  1
 49 50  1  0
 50 51  1  0
 51 52  1  0
 52 53  1  0
 49 54  1  0
 49 55  1  0
 55 56  2  0
 55 57  1  0
 57 58  1  0
 58 59  1  0
 59 60  1  0
 60 61  1  0
 61 62  2  0
 61 63  1  0
 58 64  1  0
 64 65  2  0
 64 66  1  0
 66 67  1  0
 67 68  1  0
 68 69  1  0
 68 70  1  0
 67 71  1  0
 71 72  2  0
 71 73  1  0
 73 74  1  0
 74 75  1  0
 74 76  1  0
 76 77  2  0
 76 78  1  0
 78 79  1  0
 79 80  1  0
 80 81  1  0
 81 82  1  0
 82 83  1  0
 79 84  1  0
 84 85  1  0
 85 86  1  0
 86 87  1  0
 79 88  1  0
 88 89  2  0
 88 90  1  0
 90 91  1  0
 91 92  1  0
 92 93  1  0
 93 94  2  0
 93 95  1  0
 91 96  1  0
 96 97  2  0
 96 98  1  0
 98 99  1  0
 99100  1  0
100101  1  0
101102  1  0
101103  1  0
 99104  1  0
104105  2  0
104106  1  0
106107  1  0
107108  1  0
108109  1  0
109110  2  0
110111  1  0
111112  1  0
112113  2  0
113114  1  0
114115  2  0
115116  1  0
116117  2  0
107118  1  0
118119  2  0
118120  1  0
120121  1  0
121122  1  0
122123  1  0
123124  1  0
124125  1  0
125126  1  0
121127  1  0
127128  2  0
127129  1  0
129130  1  0
130131  1  0
131132  1  0
132133  1  0
132134  1  0
130135  1  0
135136  2  0
135137  1  0
137138  1  0
138139  1  0
139140  1  0
140141  1  0
140142  1  0
138143  1  0
143144  2  0
143145  1  0
145146  1  0
146147  1  0
147148  1  0
148149  1  0
149150  1  0
150151  1  0
151152  1  0
152153  1  0
146154  1  0
146155  1  1
155156  2  0
155157  1  0
157158  1  0
158159  1  0
159160  1  0
160161  1  0
161162  2  0
161163  1  0
158164  1  0
164165  2  0
164166  1  0
166167  1  0
167168  1  0
168169  1  0
169170  1  0
169171  2  0
167172  1  0
172173  2  0
172174  1  0
  8  3  1  0
117109  1  0
 11  6  1  0
117112  1  0
 18 13  2  0
 53 83  2  0
 22  9  1  0
 87153  2  0
 26 21  1  0
  2175  1  0
  4176  1  0
  5177  1  0
  8178  1  0
 15179  1  0
 17180  1  0
 18181  1  0
 19182  1  0
 23183  1  0
 24184  1  0
 26185  1  0
 27186  1  0
 29187  1  0
 30188  1  0
 30189  1  0
 31190  1  0
 31191  1  0
 34192  1  0
 35193  1  1
 36194  1  0
 36195  1  0
 37196  1  0
 38197  1  0
 38198  1  0
 38199  1  0
 39200  1  0
 39201  1  0
 39202  1  0
 42203  1  0
 43204  1  1
 44205  1  0
 44206  1  0
 45207  1  0
 48208  1  0
 50209  1  0
 50210  1  0
 51211  1  0
 51212  1  0
 52213  1  0
 52214  1  0
 53215  1  0
 54216  1  0
 54217  1  0
 54218  1  0
 57219  1  0
 58220  1  6
 59221  1  0
 59222  1  0
 60223  1  0
 60224  1  0
 66225  1  0
 67226  1  6
 68227  1  1
 69228  1  0
 70229  1  0
 70230  1  0
 70231  1  0
 73232  1  0
 74233  1  6
 75234  1  0
 75235  1  0
 75236  1  0
 78237  1  0
 80238  1  0
 80239  1  0
 81240  1  0
 81241  1  0
 82242  1  0
 82243  1  0
 83244  1  0
 84245  1  0
 84246  1  0
 85247  1  0
 85248  1  0
 86249  1  0
 86250  1  0
 87251  1  0
 90252  1  0
 91253  1  6
 92254  1  0
 92255  1  0
 98256  1  0
 99257  1  6
100258  1  0
100259  1  0
101260  1  0
102261  1  0
102262  1  0
102263  1  0
103264  1  0
103265  1  0
103266  1  0
106267  1  0
107268  1  6
108269  1  0
108270  1  0
110271  1  0
111272  1  0
113273  1  0
114274  1  0
115275  1  0
116276  1  0
120277  1  0
121278  1  6
122279  1  0
122280  1  0
123281  1  0
123282  1  0
124283  1  0
124284  1  0
125285  1  0
125286  1  0
126287  1  0
126288  1  0
126289  1  0
129290  1  0
130291  1  6
131292  1  0
131293  1  0
132294  1  0
133295  1  0
133296  1  0
133297  1  0
134298  1  0
134299  1  0
134300  1  0
137301  1  0
138302  1  6
139303  1  0
139304  1  0
140305  1  0
141306  1  0
141307  1  0
141308  1  0
142309  1  0
142310  1  0
142311  1  0
145312  1  0
147313  1  0
147314  1  0
148315  1  0
148316  1  0
149317  1  0
149318  1  0
150319  1  0
150320  1  0
151321  1  0
151322  1  0
152323  1  0
152324  1  0
153325  1  0
154326  1  0
154327  1  0
154328  1  0
157329  1  0
158330  1  1
159331  1  0
159332  1  0
160333  1  0
160334  1  0
166335  1  0
167336  1  6
168337  1  0
168338  1  0
170339  1  0
170340  1  0
M  CHG  5  63  -1  95  -1 126   1 163  -1 174  -1
M  END
