
     RDKit          2D

487495  0  0  0  0  0  0  0  0999 V2000
   30.7034   -7.3749    0.0000 C   0  0  0  0  0  0  0  0  0  0  0  0
   32.1707   -7.0636    0.0000 N   0  0  0  0  0  0  0  0  0  0  0  0
   33.1740   -8.1786    0.0000 C   0  0  0  0  0  0  0  0  0  0  0  0
   32.7100   -9.6050    0.0000 C   0  0  0  0  0  0  0  0  0  0  0  0
   33.7133  -10.7201    0.0000 C   0  0  0  0  0  0  0  0  0  0  0  0
   35.1807  -10.4087    0.0000 C   0  0  0  0  0  0  0  0  0  0  0  0
   35.6447   -8.9823    0.0000 C   0  0  0  0  0  0  0  0  0  0  0  0
   34.6413   -7.8672    0.0000 C   0  0  0  0  0  0  0  0  0  0  0  0
   37.1447   -8.9828    0.0000 C   0  0  0  0  0  0  0  0  0  0  0  0
   37.6077  -10.4095    0.0000 O   0  0  0  0  0  0  0  0  0  0  0  0
   36.3939  -11.2908    0.0000 C   0  0  0  0  0  0  0  0  0  0  0  0
   36.3934  -12.7908    0.0000 O   0  0  0  0  0  0  0  0  0  0  0  0
   38.6364   -9.1401    0.0000 C   0  0  0  0  0  0  0  0  0  0  0  0
   39.5185   -7.9268    0.0000 C   0  0  0  0  0  0  0  0  0  0  0  0
   41.0102   -8.0841    0.0000 C   0  0  0  0  0  0  0  0  0  0  0  0
   41.6199   -9.4546    0.0000 C   0  0  0  0  0  0  0  0  0  0  0  0
   40.7378  -10.6679    0.0000 C   0  0  0  0  0  0  0  0  0  0  0  0
   39.2460  -10.5106    0.0000 C   0  0  0  0  0  0  0  0  0  0  0  0
   43.1116   -9.6119    0.0000 O   0  0  0  0  0  0  0  0  0  0  0  0
   38.9088   -6.5563    0.0000 O   0  0  0  0  0  0  0  0  0  0  0  0
   37.4171   -6.3990    0.0000 C   0  0  0  0  0  0  0  0  0  0  0  0
   36.5350   -7.6122    0.0000 C   0  0  0  0  0  0  0  0  0  0  0  0
   35.4549   -6.8888    0.0000 C   0  0  0  0  0  0  0  0  0  0  0  0
   35.1298   -6.1578    0.0000 C   0  0  0  0  0  0  0  0  0  0  0  0
   35.6002   -5.5108    0.0000 C   0  0  0  0  0  0  0  0  0  0  0  0
   36.3958   -5.5947    0.0000 C   0  0  0  0  0  0  0  0  0  0  0  0
   34.7060   -3.5007    0.0000 O   0  0  0  0  0  0  0  0  0  0  0  0
   30.2394   -8.8014    0.0000 S   0  0  0  0  0  0  0  0  0  0  0  0
   29.7000   -6.2599    0.0000 N   0  0  0  0  0  0  0  0  0  0  0  0
   28.2327   -6.5713    0.0000 C   0  0  0  0  0  0  0  0  0  0  0  0
   27.2294   -5.4562    0.0000 C   0  0  0  0  0  0  0  0  0  0  0  0
   25.7621   -5.7676    0.0000 C   0  0  0  0  0  0  0  0  0  0  0  0
   25.7062   -6.5628    0.0000 O   0  0  0  0  0  0  0  0  0  0  0  0
   24.7587   -4.6526    0.0000 N   0  0  0  0  0  0  0  0  0  0  0  0
   23.2914   -4.9640    0.0000 C   0  0  0  0  0  0  0  0  0  0  0  0
   23.8529   -6.3549    0.0000 C   0  0  0  0  0  0  0  0  0  0  0  0
   25.3382   -6.5642    0.0000 C   0  0  0  0  0  0  0  0  0  0  0  0
   25.8996   -7.9551    0.0000 N   0  0  0  0  0  0  0  0  0  0  0  0
   26.5206   -5.6411    0.0000 O   0  0  0  0  0  0  0  0  0  0  0  0
   21.8061   -4.7547    0.0000 C   0  0  0  0  0  0  0  0  0  0  0  0
   21.1956   -6.1249    0.0000 O   0  0  0  0  0  0  0  0  0  0  0  0
   21.2446   -3.3637    0.0000 N   0  0  0  0  0  0  0  0  0  0  0  0
   19.7593   -3.1545    0.0000 C   0  0  0  0  0  0  0  0  0  0  0  0
   19.8111   -4.6536    0.0000 C   0  0  0  0  0  0  0  0  0  0  0  0
   21.1353   -5.3582    0.0000 C   0  0  0  0  0  0  0  0  0  0  0  0
   21.1872   -6.8573    0.0000 C   0  0  0  0  0  0  0  0  0  0  0  0
   22.4156   -7.7182    0.0000 O   0  0  0  0  0  0  0  0  0  0  0  0
   19.9148   -7.6518    0.0000 O   0  0  0  0  0  0  0  0  0  0  0  0
   18.4351   -2.4499    0.0000 C   0  0  0  0  0  0  0  0  0  0  0  0
   17.3928   -3.5286    0.0000 O   0  0  0  0  0  0  0  0  0  0  0  0
   18.3832   -0.9508    0.0000 N   0  0  0  0  0  0  0  0  0  0  0  0
   17.0590   -0.2461    0.0000 C   0  0  0  0  0  0  0  0  0  0  0  0
   16.5951   -1.6725    0.0000 C   0  0  0  0  0  0  0  0  0  0  0  0
   17.5984   -2.7876    0.0000 C   0  0  0  0  0  0  0  0  0  0  0  0
   17.1344   -4.2140    0.0000 C   0  0  0  0  0  0  0  0  0  0  0  0
   18.9226   -3.4922    0.0000 C   0  0  0  0  0  0  0  0  0  0  0  0
   16.0557    0.8689    0.0000 C   0  0  0  0  0  0  0  0  0  0  0  0
   14.7073    0.2118    0.0000 O   0  0  0  0  0  0  0  0  0  0  0  0
   16.5197    2.2954    0.0000 N   0  0  0  0  0  0  0  0  0  0  0  0
   15.5164    3.4104    0.0000 C   0  0  0  0  0  0  0  0  0  0  0  0
   14.9629    2.0163    0.0000 C   0  0  0  0  0  0  0  0  0  0  0  0
   14.1555    0.7521    0.0000 C   0  0  0  0  0  0  0  0  0  0  0  0
   13.1235   -0.3364    0.0000 C   0  0  0  0  0  0  0  0  0  0  0  0
   11.9041   -1.2100    0.0000 C   0  0  0  0  0  0  0  0  0  0  0  0
   10.5414   -1.8370    0.0000 C   0  0  0  0  0  0  0  0  0  0  0  0
    9.0847   -2.1948    0.0000 C   0  0  0  0  0  0  0  0  0  0  0  0
    7.5866   -2.2704    0.0000 C   0  0  0  0  0  0  0  0  0  0  0  0
   16.9610    3.8142    0.0000 C   0  0  0  0  0  0  0  0  0  0  0  0
   15.7961    4.8841    0.0000 C   0  0  0  0  0  0  0  0  0  0  0  0
   17.2954    4.9289    0.0000 O   0  0  0  0  0  0  0  0  0  0  0  0
   15.7918    6.3841    0.0000 N   0  0  0  0  0  0  0  0  0  0  0  0
   15.5037    7.8562    0.0000 C   0  0  0  0  0  0  0  0  0  0  0  0
   16.5007    8.9769    0.0000 C   0  0  0  0  0  0  0  0  0  0  0  0
   17.9698    8.6739    0.0000 C   0  0  0  0  0  0  0  0  0  0  0  0
   18.9668    9.7946    0.0000 C   0  0  0  0  0  0  0  0  0  0  0  0
   20.4358    9.4916    0.0000 N   0  0  0  0  0  0  0  0  0  0  0  0
   21.4328   10.6123    0.0000 C   0  0  0  0  0  0  0  0  0  0  0  0
   22.9019   10.3093    0.0000 N   0  0  0  0  0  0  0  0  0  0  0  0
   20.9607   12.0361    0.0000 N   0  0  0  0  0  0  0  0  0  0  0  0
   14.9423    9.2471    0.0000 C   0  0  0  0  0  0  0  0  0  0  0  0
   16.1794   10.0954    0.0000 O   0  0  0  0  0  0  0  0  0  0  0  0
   14.1277   10.5067    0.0000 N   0  0  0  0  0  0  0  0  0  0  0  0
   13.0895   11.5894    0.0000 C   0  0  0  0  0  0  0  0  0  0  0  0
   13.3223   13.0712    0.0000 C   0  0  0  0  0  0  0  0  0  0  0  0
   14.7220   13.6105    0.0000 O   0  0  0  0  0  0  0  0  0  0  0  0
   11.8652   12.4560    0.0000 C   0  0  0  0  0  0  0  0  0  0  0  0
   12.4473   13.8384    0.0000 O   0  0  0  0  0  0  0  0  0  0  0  0
   10.4990   13.0752    0.0000 N   0  0  0  0  0  0  0  0  0  0  0  0
    9.0403   13.4247    0.0000 C   0  0  0  0  0  0  0  0  0  0  0  0
    8.4350   14.7972    0.0000 C   0  0  0  0  0  0  0  0  0  0  0  0
    9.3209   16.0076    0.0000 C   0  0  0  0  0  0  0  0  0  0  0  0
   10.8121   15.8456    0.0000 C   0  0  0  0  0  0  0  0  0  0  0  0
   11.6980   17.0560    0.0000 C   0  0  0  0  0  0  0  0  0  0  0  0
   11.0927   18.4284    0.0000 C   0  0  0  0  0  0  0  0  0  0  0  0
    9.6015   18.5905    0.0000 C   0  0  0  0  0  0  0  0  0  0  0  0
    8.7156   17.3800    0.0000 C   0  0  0  0  0  0  0  0  0  0  0  0
    7.5418   13.4918    0.0000 C   0  0  0  0  0  0  0  0  0  0  0  0
    7.2841   14.9695    0.0000 O   0  0  0  0  0  0  0  0  0  0  0  0
    6.0577   13.2741    0.0000 N   0  0  0  0  0  0  0  0  0  0  0  0
    4.6416   12.7795    0.0000 C   0  0  0  0  0  0  0  0  0  0  0  0
    3.3903   13.6068    0.0000 C   0  0  0  0  0  0  0  0  0  0  0  0
    3.4812   15.1041    0.0000 C   0  0  0  0  0  0  0  0  0  0  0  0
    4.8233   15.7740    0.0000 C   0  0  0  0  0  0  0  0  0  0  0  0
    4.9142   17.2712    0.0000 C   0  0  0  0  0  0  0  0  0  0  0  0
    3.6630   18.0986    0.0000 C   0  0  0  0  0  0  0  0  0  0  0  0
    2.3209   17.4286    0.0000 C   0  0  0  0  0  0  0  0  0  0  0  0
    2.2300   15.9314    0.0000 C   0  0  0  0  0  0  0  0  0  0  0  0
    3.3447   12.0258    0.0000 C   0  0  0  0  0  0  0  0  0  0  0  0
    2.3290   13.1296    0.0000 O   0  0  0  0  0  0  0  0  0  0  0  0
    2.2138   11.0403    0.0000 N   0  0  0  0  0  0  0  0  0  0  0  0
    1.2900    9.8586    0.0000 C   0  0  0  0  0  0  0  0  0  0  0  0
   -0.2099    9.8781    0.0000 C   0  0  0  0  0  0  0  0  0  0  0  0
    0.6064    8.5234    0.0000 C   0  0  0  0  0  0  0  0  0  0  0  0
   -0.8448    8.9028    0.0000 O   0  0  0  0  0  0  0  0  0  0  0  0
    0.1879    7.0829    0.0000 N   0  0  0  0  0  0  0  0  0  0  0  0
    0.0496    5.5893    0.0000 C   0  0  0  0  0  0  0  0  0  0  0  0
   -1.2228    4.7949    0.0000 C   0  0  0  0  0  0  0  0  0  0  0  0
   -2.5470    5.4995    0.0000 C   0  0  0  0  0  0  0  0  0  0  0  0
   -3.8193    4.7051    0.0000 C   0  0  0  0  0  0  0  0  0  0  0  0
   -3.5503    6.6146    0.0000 C   0  0  0  0  0  0  0  0  0  0  0  0
    0.1964    4.0965    0.0000 C   0  0  0  0  0  0  0  0  0  0  0  0
   -1.2296    3.6312    0.0000 O   0  0  0  0  0  0  0  0  0  0  0  0
    0.6231    2.6585    0.0000 N   0  0  0  0  0  0  0  0  0  0  0  0
    1.3142    1.3272    0.0000 C   0  0  0  0  0  0  0  0  0  0  0  0
    2.2448    0.1508    0.0000 C   0  0  0  0  0  0  0  0  0  0  0  0
    3.3812   -0.8283    0.0000 C   0  0  0  0  0  0  0  0  0  0  0  0
    4.6824   -1.5746    0.0000 C   0  0  0  0  0  0  0  0  0  0  0  0
    6.1013   -2.0612    0.0000 C   0  0  0  0  0  0  0  0  0  0  0  0
   -0.1855    1.2991    0.0000 C   0  0  0  0  0  0  0  0  0  0  0  0
    0.6734   -0.0290    0.0000 C   0  0  0  0  0  0  0  0  0  0  0  0
    1.2037   -1.4321    0.0000 O   0  0  0  0  0  0  0  0  0  0  0  0
   -0.8216   -0.1521    0.0000 N   0  0  0  0  0  0  0  0  0  0  0  0
   -1.4624   -1.5083    0.0000 C   0  0  0  0  0  0  0  0  0  0  0  0
   -1.6007   -3.0020    0.0000 C   0  0  0  0  0  0  0  0  0  0  0  0
   -2.9634   -3.6290    0.0000 C   0  0  0  0  0  0  0  0  0  0  0  0
   -3.1017   -5.1226    0.0000 O   0  0  0  0  0  0  0  0  0  0  0  0
   -4.3611   -3.0844    0.0000 O   0  0  0  0  0  0  0  0  0  0  0  0
   -2.9573   -1.6315    0.0000 C   0  0  0  0  0  0  0  0  0  0  0  0
   -3.8114   -0.3984    0.0000 O   0  0  0  0  0  0  0  0  0  0  0  0
   -3.5982   -2.9877    0.0000 N   0  0  0  0  0  0  0  0  0  0  0  0
   -5.0931   -3.1108    0.0000 C   0  0  0  0  0  0  0  0  0  0  0  0
   -6.5400   -2.7152    0.0000 C   0  0  0  0  0  0  0  0  0  0  0  0
   -7.6061   -3.7705    0.0000 C   0  0  0  0  0  0  0  0  0  0  0  0
   -9.0529   -3.3749    0.0000 C   0  0  0  0  0  0  0  0  0  0  0  0
  -10.2397   -4.2923    0.0000 N   0  0  0  0  0  0  0  0  0  0  0  0
   -9.4338   -1.9240    0.0000 O   0  0  0  0  0  0  0  0  0  0  0  0
   -5.7340   -4.4670    0.0000 C   0  0  0  0  0  0  0  0  0  0  0  0
   -4.8799   -5.7001    0.0000 O   0  0  0  0  0  0  0  0  0  0  0  0
   -7.2289   -4.5902    0.0000 N   0  0  0  0  0  0  0  0  0  0  0  0
   -7.8697   -5.9464    0.0000 C   0  0  0  0  0  0  0  0  0  0  0  0
   -8.0081   -7.4400    0.0000 C   0  0  0  0  0  0  0  0  0  0  0  0
   -9.2841   -8.2284    0.0000 C   0  0  0  0  0  0  0  0  0  0  0  0
   -7.6272   -8.8908    0.0000 C   0  0  0  0  0  0  0  0  0  0  0  0
   -6.1803   -9.2864    0.0000 C   0  0  0  0  0  0  0  0  0  0  0  0
   -9.3647   -6.0695    0.0000 C   0  0  0  0  0  0  0  0  0  0  0  0
  -10.3627   -4.9497    0.0000 O   0  0  0  0  0  0  0  0  0  0  0  0
  -10.0055   -7.4257    0.0000 N   0  0  0  0  0  0  0  0  0  0  0  0
  -11.5004   -7.5489    0.0000 C   0  0  0  0  0  0  0  0  0  0  0  0
  -12.9473   -7.1533    0.0000 C   0  0  0  0  0  0  0  0  0  0  0  0
  -14.0134   -8.2085    0.0000 C   0  0  0  0  0  0  0  0  0  0  0  0
  -15.4603   -7.8129    0.0000 O   0  0  0  0  0  0  0  0  0  0  0  0
  -13.9949   -9.7084    0.0000 O   0  0  0  0  0  0  0  0  0  0  0  0
  -12.1413   -8.9051    0.0000 C   0  0  0  0  0  0  0  0  0  0  0  0
  -11.2872  -10.1382    0.0000 O   0  0  0  0  0  0  0  0  0  0  0  0
  -13.6362   -9.0282    0.0000 N   0  0  0  0  0  0  0  0  0  0  0  0
  -14.2771  -10.3844    0.0000 C   0  0  0  0  0  0  0  0  0  0  0  0
  -14.4154  -11.8780    0.0000 C   0  0  0  0  0  0  0  0  0  0  0  0
  -15.7781  -12.5050    0.0000 C   0  0  0  0  0  0  0  0  0  0  0  0
  -15.9164  -13.9986    0.0000 C   0  0  0  0  0  0  0  0  0  0  0  0
  -17.1925  -14.7871    0.0000 N   0  0  0  0  0  0  0  0  0  0  0  0
  -14.6921  -14.8652    0.0000 O   0  0  0  0  0  0  0  0  0  0  0  0
  -15.7720  -10.5075    0.0000 C   0  0  0  0  0  0  0  0  0  0  0  0
  -16.6261   -9.2745    0.0000 O   0  0  0  0  0  0  0  0  0  0  0  0
  -16.4128  -11.8638    0.0000 N   0  0  0  0  0  0  0  0  0  0  0  0
  -17.9078  -11.9869    0.0000 C   0  0  0  0  0  0  0  0  0  0  0  0
  -19.3547  -11.5913    0.0000 C   0  0  0  0  0  0  0  0  0  0  0  0
  -19.3731  -10.0914    0.0000 C   0  0  0  0  0  0  0  0  0  0  0  0
  -20.8496  -11.7144    0.0000 C   0  0  0  0  0  0  0  0  0  0  0  0
  -21.3799  -10.3113    0.0000 C   0  0  0  0  0  0  0  0  0  0  0  0
  -18.5486  -13.3431    0.0000 C   0  0  0  0  0  0  0  0  0  0  0  0
  -17.8512  -14.6711    0.0000 O   0  0  0  0  0  0  0  0  0  0  0  0
  -20.0435  -13.4662    0.0000 N   0  0  0  0  0  0  0  0  0  0  0  0
  -20.8226  -14.7480    0.0000 C   0  0  0  0  0  0  0  0  0  0  0  0
  -22.2825  -14.4032    0.0000 C   0  0  0  0  0  0  0  0  0  0  0  0
  -22.4056  -12.9082    0.0000 C   0  0  0  0  0  0  0  0  0  0  0  0
  -21.0219  -12.3292    0.0000 C   0  0  0  0  0  0  0  0  0  0  0  0
  -21.7424  -11.0136    0.0000 C   0  0  0  0  0  0  0  0  0  0  0  0
  -23.2420  -10.9798    0.0000 O   0  0  0  0  0  0  0  0  0  0  0  0
  -20.9633   -9.7318    0.0000 N   0  0  0  0  0  0  0  0  0  0  0  0
  -21.6838   -8.4161    0.0000 C   0  0  0  0  0  0  0  0  0  0  0  0
  -22.8109   -7.4263    0.0000 C   0  0  0  0  0  0  0  0  0  0  0  0
  -22.5172   -5.9553    0.0000 C   0  0  0  0  0  0  0  0  0  0  0  0
  -23.6442   -4.9655    0.0000 C   0  0  0  0  0  0  0  0  0  0  0  0
  -23.3505   -3.4945    0.0000 C   0  0  0  0  0  0  0  0  0  0  0  0
  -24.4775   -2.5047    0.0000 N   0  0  0  0  0  0  0  0  0  0  0  0
  -20.9047   -7.1343    0.0000 C   0  0  0  0  0  0  0  0  0  0  0  0
  -19.4051   -7.1682    0.0000 O   0  0  0  0  0  0  0  0  0  0  0  0
  -21.6253   -5.8187    0.0000 N   0  0  0  0  0  0  0  0  0  0  0  0
  -20.8462   -4.5369    0.0000 C   0  0  0  0  0  0  0  0  0  0  0  0
  -19.6757   -3.5989    0.0000 C   0  0  0  0  0  0  0  0  0  0  0  0
  -18.2780   -4.1436    0.0000 C   0  0  0  0  0  0  0  0  0  0  0  0
  -17.1075   -3.2055    0.0000 C   0  0  0  0  0  0  0  0  0  0  0  0
  -15.7099   -3.7502    0.0000 C   0  0  0  0  0  0  0  0  0  0  0  0
  -14.5394   -2.8122    0.0000 N   0  0  0  0  0  0  0  0  0  0  0  0
  -21.5667   -3.2213    0.0000 C   0  0  0  0  0  0  0  0  0  0  0  0
  -23.0136   -2.8256    0.0000 O   0  0  0  0  0  0  0  0  0  0  0  0
  -20.7876   -1.9395    0.0000 N   0  0  0  0  0  0  0  0  0  0  0  0
  -21.5081   -0.6239    0.0000 C   0  0  0  0  0  0  0  0  0  0  0  0
  -22.6352    0.3659    0.0000 C   0  0  0  0  0  0  0  0  0  0  0  0
  -22.3415    1.8369    0.0000 C   0  0  0  0  0  0  0  0  0  0  0  0
  -23.4685    2.8267    0.0000 C   0  0  0  0  0  0  0  0  0  0  0  0
  -23.1748    4.2977    0.0000 C   0  0  0  0  0  0  0  0  0  0  0  0
  -24.3019    5.2875    0.0000 N   0  0  0  0  0  0  0  0  0  0  0  0
  -20.7290    0.6579    0.0000 C   0  0  0  0  0  0  0  0  0  0  0  0
  -19.2294    0.6241    0.0000 O   0  0  0  0  0  0  0  0  0  0  0  0
  -21.4496    1.9735    0.0000 N   0  0  0  0  0  0  0  0  0  0  0  0
  -20.6705    3.2553    0.0000 C   0  0  0  0  0  0  0  0  0  0  0  0
  -19.5000    4.1934    0.0000 C   0  0  0  0  0  0  0  0  0  0  0  0
  -18.1024    3.6487    0.0000 C   0  0  0  0  0  0  0  0  0  0  0  0
  -16.9319    4.5867    0.0000 C   0  0  0  0  0  0  0  0  0  0  0  0
  -15.5342    4.0420    0.0000 N   0  0  0  0  0  0  0  0  0  0  0  0
  -14.3637    4.9801    0.0000 C   0  0  0  0  0  0  0  0  0  0  0  0
  -12.9661    4.4354    0.0000 N   0  0  0  0  0  0  0  0  0  0  0  0
  -14.5908    6.4628    0.0000 N   0  0  0  0  0  0  0  0  0  0  0  0
  -21.3910    4.5709    0.0000 C   0  0  0  0  0  0  0  0  0  0  0  0
  -22.8379    4.9666    0.0000 O   0  0  0  0  0  0  0  0  0  0  0  0
  -20.6119    5.8527    0.0000 N   0  0  0  0  0  0  0  0  0  0  0  0
  -21.3325    7.1683    0.0000 C   0  0  0  0  0  0  0  0  0  0  0  0
  -22.4595    8.1582    0.0000 C   0  0  0  0  0  0  0  0  0  0  0  0
  -22.1658    9.6292    0.0000 C   0  0  0  0  0  0  0  0  0  0  0  0
  -23.2928   10.6190    0.0000 C   0  0  0  0  0  0  0  0  0  0  0  0
  -22.9991   12.0900    0.0000 C   0  0  0  0  0  0  0  0  0  0  0  0
  -24.1262   13.0798    0.0000 N   0  0  0  0  0  0  0  0  0  0  0  0
  -20.5534    8.4502    0.0000 C   0  0  0  0  0  0  0  0  0  0  0  0
  -19.0537    8.4163    0.0000 O   0  0  0  0  0  0  0  0  0  0  0  0
  -21.2739    9.7658    0.0000 N   0  0  0  0  0  0  0  0  0  0  0  0
  -20.4948   11.0476    0.0000 C   0  0  0  0  0  0  0  0  0  0  0  0
  -19.3243   11.9856    0.0000 C   0  0  0  0  0  0  0  0  0  0  0  0
  -17.9267   11.4409    0.0000 C   0  0  0  0  0  0  0  0  0  0  0  0
  -21.2153   12.3632    0.0000 C   0  0  0  0  0  0  0  0  0  0  0  0
  -20.5983   13.7304    0.0000 O   0  0  0  0  0  0  0  0  0  0  0  0
  -22.6622   12.7589    0.0000 O   0  0  0  0  0  0  0  0  0  0  0  0
   32.4573   -5.5912    0.0000 H   0  0  0  0  0  0  0  0  0  0  0  0
   31.2427   -9.9164    0.0000 H   0  0  0  0  0  0  0  0  0  0  0  0
   33.2493  -12.1465    0.0000 H   0  0  0  0  0  0  0  0  0  0  0  0
   34.7464   -6.3709    0.0000 H   0  0  0  0  0  0  0  0  0  0  0  0
   41.8923   -6.8709    0.0000 H   0  0  0  0  0  0  0  0  0  0  0  0
   41.3474  -12.0384    0.0000 H   0  0  0  0  0  0  0  0  0  0  0  0
   38.3640  -11.7238    0.0000 H   0  0  0  0  0  0  0  0  0  0  0  0
   43.7212  -10.9824    0.0000 H   0  0  0  0  0  0  0  0  0  0  0  0
   34.1612   -8.6682    0.0000 H   0  0  0  0  0  0  0  0  0  0  0  0
   32.9722   -5.7465    0.0000 H   0  0  0  0  0  0  0  0  0  0  0  0
   37.6895   -3.8153    0.0000 H   0  0  0  0  0  0  0  0  0  0  0  0
   35.5881   -2.2875    0.0000 H   0  0  0  0  0  0  0  0  0  0  0  0
   30.1640   -4.8335    0.0000 H   0  0  0  0  0  0  0  0  0  0  0  0
   28.7942   -7.9622    0.0000 H   0  0  0  0  0  0  0  0  0  0  0  0
   27.0667   -7.5149    0.0000 H   0  0  0  0  0  0  0  0  0  0  0  0
   28.5017   -4.6618    0.0000 H   0  0  0  0  0  0  0  0  0  0  0  0
   26.6679   -4.0653    0.0000 H   0  0  0  0  0  0  0  0  0  0  0  0
   25.2227   -3.2261    0.0000 H   0  0  0  0  0  0  0  0  0  0  0  0
   23.2395   -3.4649    0.0000 H   0  0  0  0  0  0  0  0  0  0  0  0
   23.9047   -7.8540    0.0000 H   0  0  0  0  0  0  0  0  0  0  0  0
   22.4344   -6.8428    0.0000 H   0  0  0  0  0  0  0  0  0  0  0  0
   27.3484   -8.3439    0.0000 H   0  0  0  0  0  0  0  0  0  0  0  0
   24.9758   -9.1368    0.0000 H   0  0  0  0  0  0  0  0  0  0  0  0
   22.1685   -2.1820    0.0000 H   0  0  0  0  0  0  0  0  0  0  0  0
   20.3937   -1.7953    0.0000 H   0  0  0  0  0  0  0  0  0  0  0  0
   19.3471   -6.0800    0.0000 H   0  0  0  0  0  0  0  0  0  0  0  0
   18.3193   -4.8100    0.0000 H   0  0  0  0  0  0  0  0  0  0  0  0
   22.6207   -5.5675    0.0000 H   0  0  0  0  0  0  0  0  0  0  0  0
   21.9307   -4.0865    0.0000 H   0  0  0  0  0  0  0  0  0  0  0  0
   19.6556   -0.1563    0.0000 H   0  0  0  0  0  0  0  0  0  0  0  0
   17.9829    0.9356    0.0000 H   0  0  0  0  0  0  0  0  0  0  0  0
   15.5340   -2.7328    0.0000 H   0  0  0  0  0  0  0  0  0  0  0  0
   15.2709   -0.9679    0.0000 H   0  0  0  0  0  0  0  0  0  0  0  0
   18.7807   -1.8645    0.0000 H   0  0  0  0  0  0  0  0  0  0  0  0
   17.8381   -5.5387    0.0000 H   0  0  0  0  0  0  0  0  0  0  0  0
   16.2105   -5.3957    0.0000 H   0  0  0  0  0  0  0  0  0  0  0  0
   15.7342   -3.6760    0.0000 H   0  0  0  0  0  0  0  0  0  0  0  0
   18.9744   -4.9913    0.0000 H   0  0  0  0  0  0  0  0  0  0  0  0
   20.3131   -4.0547    0.0000 H   0  0  0  0  0  0  0  0  0  0  0  0
   19.2092   -2.0199    0.0000 H   0  0  0  0  0  0  0  0  0  0  0  0
   18.0141    2.4256    0.0000 H   0  0  0  0  0  0  0  0  0  0  0  0
   16.4432    1.7740    0.0000 H   0  0  0  0  0  0  0  0  0  0  0  0
   15.5746    0.6467    0.0000 H   0  0  0  0  0  0  0  0  0  0  0  0
   15.4895    0.0663    0.0000 H   0  0  0  0  0  0  0  0  0  0  0  0
   14.6725   -0.6560    0.0000 H   0  0  0  0  0  0  0  0  0  0  0  0
   14.5571   -0.7777    0.0000 H   0  0  0  0  0  0  0  0  0  0  0  0
   13.5433   -1.7765    0.0000 H   0  0  0  0  0  0  0  0  0  0  0  0
   13.1325   -2.0708    0.0000 H   0  0  0  0  0  0  0  0  0  0  0  0
   12.0438   -2.7035    0.0000 H   0  0  0  0  0  0  0  0  0  0  0  0
   11.5847   -2.9147    0.0000 H   0  0  0  0  0  0  0  0  0  0  0  0
   10.3960   -3.3299    0.0000 H   0  0  0  0  0  0  0  0  0  0  0  0
    9.9052   -3.4505    0.0000 H   0  0  0  0  0  0  0  0  0  0  0  0
    8.4872   -3.5706    0.0000 H   0  0  0  0  0  0  0  0  0  0  0  0
    7.5195   -3.7689    0.0000 H   0  0  0  0  0  0  0  0  0  0  0  0
   18.1529    2.9036    0.0000 H   0  0  0  0  0  0  0  0  0  0  0  0
   18.2778    4.5326    0.0000 H   0  0  0  0  0  0  0  0  0  0  0  0
   16.6590    5.2835    0.0000 H   0  0  0  0  0  0  0  0  0  0  0  0
   17.2914    6.3479    0.0000 H   0  0  0  0  0  0  0  0  0  0  0  0
   16.8916    7.2872    0.0000 H   0  0  0  0  0  0  0  0  0  0  0  0
   17.0542   10.3711    0.0000 H   0  0  0  0  0  0  0  0  0  0  0  0
   15.4523   10.0497    0.0000 H   0  0  0  0  0  0  0  0  0  0  0  0
   19.2466    7.8867    0.0000 H   0  0  0  0  0  0  0  0  0  0  0  0
   17.7700    7.1872    0.0000 H   0  0  0  0  0  0  0  0  0  0  0  0
   19.5203   11.1888    0.0000 H   0  0  0  0  0  0  0  0  0  0  0  0
   17.7954   10.7316    0.0000 H   0  0  0  0  0  0  0  0  0  0  0  0
   20.9079    8.0678    0.0000 H   0  0  0  0  0  0  0  0  0  0  0  0
   23.8988   11.4300    0.0000 H   0  0  0  0  0  0  0  0  0  0  0  0
   23.3740    8.8855    0.0000 H   0  0  0  0  0  0  0  0  0  0  0  0
   21.9577   13.1568    0.0000 H   0  0  0  0  0  0  0  0  0  0  0  0
   19.4916   12.3391    0.0000 H   0  0  0  0  0  0  0  0  0  0  0  0
   15.3042   11.4373    0.0000 H   0  0  0  0  0  0  0  0  0  0  0  0
   14.5206   12.0388    0.0000 H   0  0  0  0  0  0  0  0  0  0  0  0
   13.2159   14.5674    0.0000 H   0  0  0  0  0  0  0  0  0  0  0  0
   11.8604   13.4069    0.0000 H   0  0  0  0  0  0  0  0  0  0  0  0
   14.9548   15.0923    0.0000 H   0  0  0  0  0  0  0  0  0  0  0  0
   11.1549   14.4242    0.0000 H   0  0  0  0  0  0  0  0  0  0  0  0
   10.0012   14.5765    0.0000 H   0  0  0  0  0  0  0  0  0  0  0  0
    7.5365   15.9983    0.0000 H   0  0  0  0  0  0  0  0  0  0  0  0
    7.0236   14.2891    0.0000 H   0  0  0  0  0  0  0  0  0  0  0  0
   11.5802   14.5571    0.0000 H   0  0  0  0  0  0  0  0  0  0  0  0
   13.1893   16.8940    0.0000 H   0  0  0  0  0  0  0  0  0  0  0  0
   11.9787   19.6389    0.0000 H   0  0  0  0  0  0  0  0  0  0  0  0
    8.9962   19.9629    0.0000 H   0  0  0  0  0  0  0  0  0  0  0  0
    7.2244   17.5420    0.0000 H   0  0  0  0  0  0  0  0  0  0  0  0
    5.8801   14.7636    0.0000 H   0  0  0  0  0  0  0  0  0  0  0  0
    4.8272   14.2680    0.0000 H   0  0  0  0  0  0  0  0  0  0  0  0
    1.9851   14.1315    0.0000 H   0  0  0  0  0  0  0  0  0  0  0  0
    2.4777   12.4164    0.0000 H   0  0  0  0  0  0  0  0  0  0  0  0
    6.1660   15.1053    0.0000 H   0  0  0  0  0  0  0  0  0  0  0  0
    6.2563   17.9411    0.0000 H   0  0  0  0  0  0  0  0  0  0  0  0
    3.7539   19.5958    0.0000 H   0  0  0  0  0  0  0  0  0  0  0  0
    1.0697   18.2560    0.0000 H   0  0  0  0  0  0  0  0  0  0  0  0
    0.8879   15.2615    0.0000 H   0  0  0  0  0  0  0  0  0  0  0  0
    1.1253   12.0723    0.0000 H   0  0  0  0  0  0  0  0  0  0  0  0
    0.6414   11.2111    0.0000 H   0  0  0  0  0  0  0  0  0  0  0  0
   -0.9429   11.1868    0.0000 H   0  0  0  0  0  0  0  0  0  0  0  0
   -1.6758    9.5598    0.0000 H   0  0  0  0  0  0  0  0  0  0  0  0
   -0.3341    8.3833    0.0000 H   0  0  0  0  0  0  0  0  0  0  0  0
   -1.2407    7.5402    0.0000 H   0  0  0  0  0  0  0  0  0  0  0  0
   -1.1218    6.5263    0.0000 H   0  0  0  0  0  0  0  0  0  0  0  0
   -2.1467    3.6132    0.0000 H   0  0  0  0  0  0  0  0  0  0  0  0
   -0.5191    3.4702    0.0000 H   0  0  0  0  0  0  0  0  0  0  0  0
   -1.9365    6.8697    0.0000 H   0  0  0  0  0  0  0  0  0  0  0  0
   -5.2195    5.2430    0.0000 H   0  0  0  0  0  0  0  0  0  0  0  0
   -4.7432    3.5233    0.0000 H   0  0  0  0  0  0  0  0  0  0  0  0
   -2.9594    3.4760    0.0000 H   0  0  0  0  0  0  0  0  0  0  0  0
   -5.0446    6.4844    0.0000 H   0  0  0  0  0  0  0  0  0  0  0  0
   -4.1117    8.0055    0.0000 H   0  0  0  0  0  0  0  0  0  0  0  0
   -2.2780    7.4090    0.0000 H   0  0  0  0  0  0  0  0  0  0  0  0
   -0.8259    2.2708    0.0000 H   0  0  0  0  0  0  0  0  0  0  0  0
    1.8722   -1.3022    0.0000 H   0  0  0  0  0  0  0  0  0  0  0  0
    0.8964   -0.5064    0.0000 H   0  0  0  0  0  0  0  0  0  0  0  0
    3.1085   -2.3033    0.0000 H   0  0  0  0  0  0  0  0  0  0  0  0
    2.1816   -1.7288    0.0000 H   0  0  0  0  0  0  0  0  0  0  0  0
    4.8765   -3.0620    0.0000 H   0  0  0  0  0  0  0  0  0  0  0  0
    3.5469   -2.5547    0.0000 H   0  0  0  0  0  0  0  0  0  0  0  0
    5.7518   -3.5199    0.0000 H   0  0  0  0  0  0  0  0  0  0  0  0
   -1.2072    0.2009    0.0000 H   0  0  0  0  0  0  0  0  0  0  0  0
   -1.6044    1.7857    0.0000 H   0  0  0  0  0  0  0  0  0  0  0  0
   -0.3182    2.7933    0.0000 H   0  0  0  0  0  0  0  0  0  0  0  0
   -1.8196    0.9677    0.0000 H   0  0  0  0  0  0  0  0  0  0  0  0
   -0.0155   -1.9039    0.0000 H   0  0  0  0  0  0  0  0  0  0  0  0
   -1.2199   -4.4528    0.0000 H   0  0  0  0  0  0  0  0  0  0  0  0
   -0.1058   -2.8788    0.0000 H   0  0  0  0  0  0  0  0  0  0  0  0
   -3.0678   -4.3908    0.0000 H   0  0  0  0  0  0  0  0  0  0  0  0
   -4.9548   -1.6172    0.0000 H   0  0  0  0  0  0  0  0  0  0  0  0
   -7.7643   -1.8486    0.0000 H   0  0  0  0  0  0  0  0  0  0  0  0
   -5.8992   -1.3590    0.0000 H   0  0  0  0  0  0  0  0  0  0  0  0
   -8.2469   -5.1267    0.0000 H   0  0  0  0  0  0  0  0  0  0  0  0
   -6.9320   -5.1105    0.0000 H   0  0  0  0  0  0  0  0  0  0  0  0
  -11.5659   -4.0345    0.0000 H   0  0  0  0  0  0  0  0  0  0  0  0
  -10.3409   -5.9552    0.0000 H   0  0  0  0  0  0  0  0  0  0  0  0
   -8.3560   -3.6004    0.0000 H   0  0  0  0  0  0  0  0  0  0  0  0
   -6.4228   -6.3420    0.0000 H   0  0  0  0  0  0  0  0  0  0  0  0
   -6.5393   -7.1356    0.0000 H   0  0  0  0  0  0  0  0  0  0  0  0
   -9.6901   -9.5326    0.0000 H   0  0  0  0  0  0  0  0  0  0  0  0
  -10.8657   -8.1901    0.0000 H   0  0  0  0  0  0  0  0  0  0  0  0
  -10.5150   -7.0971    0.0000 H   0  0  0  0  0  0  0  0  0  0  0  0
   -7.7656  -10.3844    0.0000 H   0  0  0  0  0  0  0  0  0  0  0  0
   -9.0479   -9.3720    0.0000 H   0  0  0  0  0  0  0  0  0  0  0  0
   -5.7995  -10.7373    0.0000 H   0  0  0  0  0  0  0  0  0  0  0  0
   -4.6854   -9.1633    0.0000 H   0  0  0  0  0  0  0  0  0  0  0  0
   -5.8610   -7.8208    0.0000 H   0  0  0  0  0  0  0  0  0  0  0  0
   -9.4752   -8.8288    0.0000 H   0  0  0  0  0  0  0  0  0  0  0  0
  -11.3621   -6.0552    0.0000 H   0  0  0  0  0  0  0  0  0  0  0  0
  -14.1717   -6.2867    0.0000 H   0  0  0  0  0  0  0  0  0  0  0  0
  -12.3065   -5.7970    0.0000 H   0  0  0  0  0  0  0  0  0  0  0  0
  -14.7633   -8.0384    0.0000 H   0  0  0  0  0  0  0  0  0  0  0  0
  -12.8302  -10.7800    0.0000 H   0  0  0  0  0  0  0  0  0  0  0  0
  -14.0345  -13.3289    0.0000 H   0  0  0  0  0  0  0  0  0  0  0  0
  -12.9205  -11.7549    0.0000 H   0  0  0  0  0  0  0  0  0  0  0  0
  -17.2730  -12.6282    0.0000 H   0  0  0  0  0  0  0  0  0  0  0  0
  -16.7956  -11.4029    0.0000 H   0  0  0  0  0  0  0  0  0  0  0  0
  -17.4174  -16.1192    0.0000 H   0  0  0  0  0  0  0  0  0  0  0  0
  -18.7132  -14.1068    0.0000 H   0  0  0  0  0  0  0  0  0  0  0  0
  -15.8825  -13.2669    0.0000 H   0  0  0  0  0  0  0  0  0  0  0  0
  -17.5884  -10.5213    0.0000 H   0  0  0  0  0  0  0  0  0  0  0  0
  -19.8503  -13.0070    0.0000 H   0  0  0  0  0  0  0  0  0  0  0  0
  -20.9475   -9.2303    0.0000 H   0  0  0  0  0  0  0  0  0  0  0  0
  -19.5972   -8.6468    0.0000 H   0  0  0  0  0  0  0  0  0  0  0  0
  -18.2667   -9.8360    0.0000 H   0  0  0  0  0  0  0  0  0  0  0  0
  -22.3235  -11.9931    0.0000 H   0  0  0  0  0  0  0  0  0  0  0  0
  -20.8311  -13.2143    0.0000 H   0  0  0  0  0  0  0  0  0  0  0  0
  -23.2208  -10.3806    0.0000 H   0  0  0  0  0  0  0  0  0  0  0  0
  -22.4968   -9.3682    0.0000 H   0  0  0  0  0  0  0  0  0  0  0  0
  -20.5739   -9.5123    0.0000 H   0  0  0  0  0  0  0  0  0  0  0  0
  -19.4664  -15.3889    0.0000 H   0  0  0  0  0  0  0  0  0  0  0  0
  -21.3182  -16.1638    0.0000 H   0  0  0  0  0  0  0  0  0  0  0  0
  -22.4728  -15.8910    0.0000 H   0  0  0  0  0  0  0  0  0  0  0  0
  -23.7821  -14.3694    0.0000 H   0  0  0  0  0  0  0  0  0  0  0  0
  -23.8795  -13.1870    0.0000 H   0  0  0  0  0  0  0  0  0  0  0  0
  -23.0087  -11.5348    0.0000 H   0  0  0  0  0  0  0  0  0  0  0  0
  -20.0321  -11.2021    0.0000 H   0  0  0  0  0  0  0  0  0  0  0  0
  -19.5001   -9.4017    0.0000 H   0  0  0  0  0  0  0  0  0  0  0  0
  -22.9599   -9.2045    0.0000 H   0  0  0  0  0  0  0  0  0  0  0  0
  -24.2645   -7.0561    0.0000 H   0  0  0  0  0  0  0  0  0  0  0  0
  -23.5900   -8.7081    0.0000 H   0  0  0  0  0  0  0  0  0  0  0  0
  -21.5876   -4.7781    0.0000 H   0  0  0  0  0  0  0  0  0  0  0  0
  -21.0275   -5.7800    0.0000 H   0  0  0  0  0  0  0  0  0  0  0  0
  -25.0978   -4.5953    0.0000 H   0  0  0  0  0  0  0  0  0  0  0  0
  -24.5737   -6.1428    0.0000 H   0  0  0  0  0  0  0  0  0  0  0  0
  -22.7335   -2.1273    0.0000 H   0  0  0  0  0  0  0  0  0  0  0  0
  -21.8969   -3.8648    0.0000 H   0  0  0  0  0  0  0  0  0  0  0  0
  -24.0067   -1.0805    0.0000 H   0  0  0  0  0  0  0  0  0  0  0  0
  -25.8752   -1.9600    0.0000 H   0  0  0  0  0  0  0  0  0  0  0  0
  -25.4071   -3.6820    0.0000 H   0  0  0  0  0  0  0  0  0  0  0  0
  -23.0721   -5.4231    0.0000 H   0  0  0  0  0  0  0  0  0  0  0  0
  -19.8482   -5.6568    0.0000 H   0  0  0  0  0  0  0  0  0  0  0  0
  -18.8966   -2.3171    0.0000 H   0  0  0  0  0  0  0  0  0  0  0  0
  -20.5297   -2.3658    0.0000 H   0  0  0  0  0  0  0  0  0  0  0  0
  -17.2801   -5.2634    0.0000 H   0  0  0  0  0  0  0  0  0  0  0  0
  -18.8951   -5.5108    0.0000 H   0  0  0  0  0  0  0  0  0  0  0  0
  -16.4905   -1.8383    0.0000 H   0  0  0  0  0  0  0  0  0  0  0  0
  -18.1055   -2.0857    0.0000 H   0  0  0  0  0  0  0  0  0  0  0  0
  -14.5829   -4.7400    0.0000 H   0  0  0  0  0  0  0  0  0  0  0  0
  -16.3270   -5.1174    0.0000 H   0  0  0  0  0  0  0  0  0  0  0  0
  -13.1418   -3.3568    0.0000 H   0  0  0  0  0  0  0  0  0  0  0  0
  -13.7603   -1.5304    0.0000 H   0  0  0  0  0  0  0  0  0  0  0  0
  -15.5374   -1.6923    0.0000 H   0  0  0  0  0  0  0  0  0  0  0  0
  -19.2951   -1.7903    0.0000 H   0  0  0  0  0  0  0  0  0  0  0  0
  -22.7843   -1.4123    0.0000 H   0  0  0  0  0  0  0  0  0  0  0  0
  -24.0888    0.7362    0.0000 H   0  0  0  0  0  0  0  0  0  0  0  0
  -23.2522   -1.0013    0.0000 H   0  0  0  0  0  0  0  0  0  0  0  0
  -21.4119    3.0142    0.0000 H   0  0  0  0  0  0  0  0  0  0  0  0
  -20.8518    2.0123    0.0000 H   0  0  0  0  0  0  0  0  0  0  0  0
  -24.9221    3.1970    0.0000 H   0  0  0  0  0  0  0  0  0  0  0  0
  -24.3980    1.6495    0.0000 H   0  0  0  0  0  0  0  0  0  0  0  0
  -22.5578    5.6649    0.0000 H   0  0  0  0  0  0  0  0  0  0  0  0
  -21.7212    3.9275    0.0000 H   0  0  0  0  0  0  0  0  0  0  0  0
  -23.8310    6.7117    0.0000 H   0  0  0  0  0  0  0  0  0  0  0  0
  -25.6995    5.8322    0.0000 H   0  0  0  0  0  0  0  0  0  0  0  0
  -25.2314    4.1103    0.0000 H   0  0  0  0  0  0  0  0  0  0  0  0
  -22.8964    2.3692    0.0000 H   0  0  0  0  0  0  0  0  0  0  0  0
  -19.6725    2.1355    0.0000 H   0  0  0  0  0  0  0  0  0  0  0  0
  -18.7209    5.4752    0.0000 H   0  0  0  0  0  0  0  0  0  0  0  0
  -20.3540    5.4265    0.0000 H   0  0  0  0  0  0  0  0  0  0  0  0
  -16.9753    2.6588    0.0000 H   0  0  0  0  0  0  0  0  0  0  0  0
  -18.7194    2.2815    0.0000 H   0  0  0  0  0  0  0  0  0  0  0  0
  -16.1528    5.8685    0.0000 H   0  0  0  0  0  0  0  0  0  0  0  0
  -17.9298    5.7066    0.0000 H   0  0  0  0  0  0  0  0  0  0  0  0
  -15.3071    2.5593    0.0000 H   0  0  0  0  0  0  0  0  0  0  0  0
  -11.7956    5.3734    0.0000 H   0  0  0  0  0  0  0  0  0  0  0  0
  -12.7390    2.9527    0.0000 H   0  0  0  0  0  0  0  0  0  0  0  0
  -13.4203    7.4008    0.0000 H   0  0  0  0  0  0  0  0  0  0  0  0
  -15.9885    7.0075    0.0000 H   0  0  0  0  0  0  0  0  0  0  0  0
  -19.1194    6.0020    0.0000 H   0  0  0  0  0  0  0  0  0  0  0  0
  -22.6086    6.3800    0.0000 H   0  0  0  0  0  0  0  0  0  0  0  0
  -23.9131    8.5284    0.0000 H   0  0  0  0  0  0  0  0  0  0  0  0
  -23.0765    6.7910    0.0000 H   0  0  0  0  0  0  0  0  0  0  0  0
  -21.2363   10.8064    0.0000 H   0  0  0  0  0  0  0  0  0  0  0  0
  -20.6761    9.8045    0.0000 H   0  0  0  0  0  0  0  0  0  0  0  0
  -24.7464   10.9892    0.0000 H   0  0  0  0  0  0  0  0  0  0  0  0
  -24.2224    9.4417    0.0000 H   0  0  0  0  0  0  0  0  0  0  0  0
  -22.2200   13.3718    0.0000 H   0  0  0  0  0  0  0  0  0  0  0  0
  -21.5455   11.7197    0.0000 H   0  0  0  0  0  0  0  0  0  0  0  0
  -23.8325   14.5508    0.0000 H   0  0  0  0  0  0  0  0  0  0  0  0
  -25.5238   13.6245    0.0000 H   0  0  0  0  0  0  0  0  0  0  0  0
  -25.0557   11.9025    0.0000 H   0  0  0  0  0  0  0  0  0  0  0  0
  -22.7208   10.1614    0.0000 H   0  0  0  0  0  0  0  0  0  0  0  0
  -19.4968    9.9277    0.0000 H   0  0  0  0  0  0  0  0  0  0  0  0
  -18.5452   13.2674    0.0000 H   0  0  0  0  0  0  0  0  0  0  0  0
  -20.3223   13.1054    0.0000 H   0  0  0  0  0  0  0  0  0  0  0  0
  -16.7562   12.3790    0.0000 H   0  0  0  0  0  0  0  0  0  0  0  0
  -16.7996   10.4511    0.0000 H   0  0  0  0  0  0  0  0  0  0  0  0
  -18.5437   10.0737    0.0000 H   0  0  0  0  0  0  0  0  0  0  0  0
  1  2  1  0
  2  3  1  0
  3  4  2  0
  4  5  1  0
  5  6  2  0
  6  7  1  0
  7  8  2  0
  7  9  1  0
  9 10  1  0
 10 11  1  0
 11 12  2  0
  9 13  1  0
 13 14  1  0
 14 15  2  0
 15 16  1  0
 16 17  2  0
 17 18  1  0
 16 19  1  0
 14 20  1  0
 20 21  1  0
 21 22  2  0
 22 23  1  0
 23 24  2  0
 24 25  1  0
 25 26  2  0
 25 27  1  0
  1 28  2  0
  1 29  1  0
 29 30  1  0
 30 31  1  0
 31 32  1  0
 32 33  2  0
 32 34  1  0
 34 35  1  0
 35 36  1  0
 36 37  1  0
 37 38  1  0
 37 39  2  0
 35 40  1  0
 40 41  2  0
 40 42  1  0
 42 43  1  0
 43 44  1  0
 44 45  1  0
 45 46  1  0
 46 47  2  0
 46 48  1  0
 43 49  1  0
 49 50  2  0
 49 51  1  0
 51 52  1  0
 52 53  1  0
 53 54  1  0
 54 55  1  0
 54 56  1  0
 52 57  1  0
 57 58  2  0
 57 59  1  0
 60 59  1  6
 60 61  1  0
 61 62  1  0
 62 63  1  0
 63 64  1  0
 64 65  1  0
 65 66  1  0
 66 67  1  0
 60 68  1  0
 60 69  1  0
 69 70  2  0
 69 71  1  0
 71 72  1  0
 72 73  1  0
 73 74  1  0
 74 75  1  0
 75 76  1  0
 76 77  1  0
 77 78  2  3
 77 79  1  0
 72 80  1  0
 80 81  2  0
 80 82  1  0
 82 83  1  0
 83 84  1  0
 84 85  1  0
 83 86  1  0
 86 87  2  0
 86 88  1  0
 88 89  1  0
 89 90  1  0
 90 91  1  0
 91 92  2  0
 92 93  1  0
 93 94  2  0
 94 95  1  0
 95 96  2  0
 89 97  1  0
 97 98  2  0
 97 99  1  0
 99100  1  0
100101  1  0
101102  1  0
102103  2  0
103104  1  0
104105  2  0
105106  1  0
106107  2  0
100108  1  0
108109  2  0
108110  1  0
110111  1  0
111112  1  0
111113  1  0
113114  2  0
113115  1  0
115116  1  0
116117  1  0
117118  1  0
118119  1  0
118120  1  0
116121  1  0
121122  2  0
121123  1  0
123124  1  0
124125  1  0
125126  1  0
126127  1  0
127128  1  0
124129  1  0
124130  1  1
130131  2  0
130132  1  0
132133  1  0
133134  1  0
134135  1  0
135136  2  0
135137  1  0
133138  1  0
138139  2  0
138140  1  0
140141  1  0
141142  1  0
142143  1  0
143144  1  0
144145  1  0
144146  2  0
141147  1  0
147148  2  0
147149  1  0
149150  1  0
150151  1  0
151152  1  0
151153  1  0
153154  1  0
150155  1  0
155156  2  0
155157  1  0
157158  1  0
158159  1  0
159160  1  0
160161  2  0
160162  1  0
158163  1  0
163164  2  0
163165  1  0
165166  1  0
166167  1  0
167168  1  0
168169  1  0
169170  1  0
169171  2  0
166172  1  0
172173  2  0
172174  1  0
174175  1  0
175176  1  0
176177  1  0
176178  1  0
178179  1  0
175180  1  0
180181  2  0
180182  1  0
182183  1  0
183184  1  0
184185  1  0
185186  1  0
186187  1  0
187188  2  0
187189  1  0
189190  1  0
190191  1  0
191192  1  0
192193  1  0
193194  1  0
194195  1  0
190196  1  0
196197  2  0
196198  1  0
198199  1  0
199200  1  0
200201  1  0
201202  1  0
202203  1  0
203204  1  0
199205  1  0
205206  2  0
205207  1  0
207208  1  0
208209  1  0
209210  1  0
210211  1  0
211212  1  0
212213  1  0
208214  1  0
214215  2  0
214216  1  0
216217  1  0
217218  1  0
218219  1  0
219220  1  0
220221  1  0
221222  1  0
222223  2  3
222224  1  0
217225  1  0
225226  2  0
225227  1  0
227228  1  0
228229  1  0
229230  1  0
230231  1  0
231232  1  0
232233  1  0
228234  1  0
234235  2  0
234236  1  0
236237  1  0
237238  1  0
238239  1  0
237240  1  0
240241  2  0
240242  1  0
  8  3  1  0
 96 91  1  0
107102  1  0
186182  1  0
 11  6  1  0
 18 13  2  0
 67128  2  0
 22  9  1  0
 26 21  1  0
  2243  1  0
  4244  1  0
  5245  1  0
  8246  1  0
 15247  1  0
 17248  1  0
 18249  1  0
 19250  1  0
 23251  1  0
 24252  1  0
 26253  1  0
 27254  1  0
 29255  1  0
 30256  1  0
 30257  1  0
 31258  1  0
 31259  1  0
 34260  1  0
 35261  1  1
 36262  1  0
 36263  1  0
 38264  1  0
 38265  1  0
 42266  1  0
 43267  1  1
 44268  1  0
 44269  1  0
 45270  1  0
 45271  1  0
 51272  1  0
 52273  1  1
 53274  1  0
 53275  1  0
 54276  1  0
 55277  1  0
 55278  1  0
 55279  1  0
 56280  1  0
 56281  1  0
 56282  1  0
 59283  1  0
 61284  1  0
 61285  1  0
 62286  1  0
 62287  1  0
 63288  1  0
 63289  1  0
 64290  1  0
 64291  1  0
 65292  1  0
 65293  1  0
 66294  1  0
 66295  1  0
 67296  1  0
 68297  1  0
 68298  1  0
 68299  1  0
 71300  1  0
 72301  1  6
 73302  1  0
 73303  1  0
 74304  1  0
 74305  1  0
 75306  1  0
 75307  1  0
 76308  1  0
 78309  1  0
 78310  1  0
 79311  1  0
 79312  1  0
 82313  1  0
 83314  1  6
 84315  1  0
 84316  1  0
 85317  1  0
 88318  1  0
 89319  1  6
 90320  1  0
 90321  1  0
 92322  1  0
 93323  1  0
 94324  1  0
 95325  1  0
 96326  1  0
 99327  1  0
100328  1  6
101329  1  0
101330  1  0
103331  1  0
104332  1  0
105333  1  0
106334  1  0
107335  1  0
110336  1  0
111337  1  6
112338  1  0
112339  1  0
112340  1  0
115341  1  0
116342  1  6
117343  1  0
117344  1  0
118345  1  0
119346  1  0
119347  1  0
119348  1  0
120349  1  0
120350  1  0
120351  1  0
123352  1  0
125353  1  0
125354  1  0
126355  1  0
126356  1  0
127357  1  0
127358  1  0
128359  1  0
129360  1  0
129361  1  0
129362  1  0
132363  1  0
133364  1  1
134365  1  0
134366  1  0
140367  1  0
141368  1  6
142369  1  0
142370  1  0
143371  1  0
143372  1  0
145373  1  0
145374  1  0
149375  1  0
150376  1  1
151377  1  1
152378  1  0
152379  1  0
152380  1  0
153381  1  0
153382  1  0
154383  1  0
154384  1  0
154385  1  0
157386  1  0
158387  1  6
159388  1  0
159389  1  0
165390  1  0
166391  1  1
167392  1  0
167393  1  0
168394  1  0
168395  1  0
170396  1  0
170397  1  0
174398  1  0
175399  1  6
176400  1  1
177401  1  0
177402  1  0
177403  1  0
178404  1  0
178405  1  0
179406  1  0
179407  1  0
179408  1  0
183409  1  0
183410  1  0
184411  1  0
184412  1  0
185413  1  0
185414  1  0
186415  1  0
189416  1  0
190417  1  1
191418  1  0
191419  1  0
192420  1  0
192421  1  0
193422  1  0
193423  1  0
194424  1  0
194425  1  0
195426  1  0
195427  1  0
195428  1  0
198429  1  0
199430  1  6
200431  1  0
200432  1  0
201433  1  0
201434  1  0
202435  1  0
202436  1  0
203437  1  0
203438  1  0
204439  1  0
204440  1  0
204441  1  0
207442  1  0
208443  1  1
209444  1  0
209445  1  0
210446  1  0
210447  1  0
211448  1  0
211449  1  0
212450  1  0
212451  1  0
213452  1  0
213453  1  0
213454  1  0
216455  1  0
217456  1  6
218457  1  0
218458  1  0
219459  1  0
219460  1  0
220461  1  0
220462  1  0
221463  1  0
223464  1  0
223465  1  0
224466  1  0
224467  1  0
227468  1  0
228469  1  1
229470  1  0
229471  1  0
230472  1  0
230473  1  0
231474  1  0
231475  1  0
232476  1  0
232477  1  0
233478  1  0
233479  1  0
233480  1  0
236481  1  0
237482  1  6
238483  1  0
238484  1  0
239485  1  0
239486  1  0
239487  1  0
M  CHG  8  48  -1  78   1 137  -1 162  -1 195   1 204   1 213   1 223   1
M  CHG  2 233   1 242  -1
M  END
