
     RDKit          2D

325330  0  0  0  0  0  0  0  0999 V2000
   20.9251   -2.5972    0.0000 C   0  0  0  0  0  0  0  0  0  0  0  0
   22.2295   -1.8565    0.0000 N   0  0  0  0  0  0  0  0  0  0  0  0
   23.5231   -2.6157    0.0000 C   0  0  0  0  0  0  0  0  0  0  0  0
   23.5124   -4.1157    0.0000 C   0  0  0  0  0  0  0  0  0  0  0  0
   24.8061   -4.8749    0.0000 C   0  0  0  0  0  0  0  0  0  0  0  0
   26.1105   -4.1342    0.0000 C   0  0  0  0  0  0  0  0  0  0  0  0
   26.1211   -2.6342    0.0000 C   0  0  0  0  0  0  0  0  0  0  0  0
   24.8275   -1.8750    0.0000 C   0  0  0  0  0  0  0  0  0  0  0  0
   27.5510   -2.1809    0.0000 C   0  0  0  0  0  0  0  0  0  0  0  0
   28.4240   -3.4007    0.0000 O   0  0  0  0  0  0  0  0  0  0  0  0
   27.5337   -4.6079    0.0000 C   0  0  0  0  0  0  0  0  0  0  0  0
   27.9870   -6.0377    0.0000 O   0  0  0  0  0  0  0  0  0  0  0  0
   29.0204   -1.8795    0.0000 C   0  0  0  0  0  0  0  0  0  0  0  0
   29.4941   -0.4562    0.0000 C   0  0  0  0  0  0  0  0  0  0  0  0
   30.9635   -0.1548    0.0000 C   0  0  0  0  0  0  0  0  0  0  0  0
   31.9592   -1.2767    0.0000 C   0  0  0  0  0  0  0  0  0  0  0  0
   31.4855   -2.6999    0.0000 C   0  0  0  0  0  0  0  0  0  0  0  0
   30.0161   -3.0013    0.0000 C   0  0  0  0  0  0  0  0  0  0  0  0
   33.4286   -0.9753    0.0000 O   0  0  0  0  0  0  0  0  0  0  0  0
   28.4984    0.6656    0.0000 O   0  0  0  0  0  0  0  0  0  0  0  0
   27.0290    0.3642    0.0000 C   0  0  0  0  0  0  0  0  0  0  0  0
   26.5553   -1.0590    0.0000 C   0  0  0  0  0  0  0  0  0  0  0  0
   25.3069   -0.6963    0.0000 C   0  0  0  0  0  0  0  0  0  0  0  0
   24.7759   -0.0979    0.0000 C   0  0  0  0  0  0  0  0  0  0  0  0
   25.0285    0.6611    0.0000 C   0  0  0  0  0  0  0  0  0  0  0  0
   25.8122    0.8219    0.0000 C   0  0  0  0  0  0  0  0  0  0  0  0
   23.5681    2.3065    0.0000 O   0  0  0  0  0  0  0  0  0  0  0  0
   21.0974   -4.0873    0.0000 S   0  0  0  0  0  0  0  0  0  0  0  0
   19.6315   -1.8379    0.0000 N   0  0  0  0  0  0  0  0  0  0  0  0
   18.3271   -2.5787    0.0000 C   0  0  0  0  0  0  0  0  0  0  0  0
   17.0335   -1.8194    0.0000 C   0  0  0  0  0  0  0  0  0  0  0  0
   15.7291   -2.5601    0.0000 C   0  0  0  0  0  0  0  0  0  0  0  0
   15.9165   -3.3350    0.0000 O   0  0  0  0  0  0  0  0  0  0  0  0
   14.4354   -1.8009    0.0000 N   0  0  0  0  0  0  0  0  0  0  0  0
   13.1311   -2.5416    0.0000 C   0  0  0  0  0  0  0  0  0  0  0  0
   14.0871   -3.6975    0.0000 C   0  0  0  0  0  0  0  0  0  0  0  0
   15.5661   -3.4476    0.0000 C   0  0  0  0  0  0  0  0  0  0  0  0
   16.5221   -4.6035    0.0000 C   0  0  0  0  0  0  0  0  0  0  0  0
   18.0011   -4.3536    0.0000 N   0  0  0  0  0  0  0  0  0  0  0  0
   18.9571   -5.5095    0.0000 C   0  0  0  0  0  0  0  0  0  0  0  0
   20.4361   -5.2595    0.0000 N   0  0  0  0  0  0  0  0  0  0  0  0
   18.4340   -6.9153    0.0000 N   0  0  0  0  0  0  0  0  0  0  0  0
   11.6521   -2.7916    0.0000 C   0  0  0  0  0  0  0  0  0  0  0  0
   11.4847   -4.2822    0.0000 O   0  0  0  0  0  0  0  0  0  0  0  0
   10.6961   -1.6356    0.0000 N   0  0  0  0  0  0  0  0  0  0  0  0
    9.2171   -1.8856    0.0000 C   0  0  0  0  0  0  0  0  0  0  0  0
    9.7200   -3.2987    0.0000 C   0  0  0  0  0  0  0  0  0  0  0  0
   11.1954   -3.5697    0.0000 C   0  0  0  0  0  0  0  0  0  0  0  0
   11.6983   -4.9829    0.0000 N   0  0  0  0  0  0  0  0  0  0  0  0
   12.4152   -2.6968    0.0000 O   0  0  0  0  0  0  0  0  0  0  0  0
    7.7417   -1.6146    0.0000 C   0  0  0  0  0  0  0  0  0  0  0  0
    7.0747   -2.9581    0.0000 O   0  0  0  0  0  0  0  0  0  0  0  0
    7.2388   -0.2014    0.0000 N   0  0  0  0  0  0  0  0  0  0  0  0
    5.7635    0.0696    0.0000 C   0  0  0  0  0  0  0  0  0  0  0  0
    5.7528   -1.4304    0.0000 C   0  0  0  0  0  0  0  0  0  0  0  0
    7.0464   -2.1896    0.0000 C   0  0  0  0  0  0  0  0  0  0  0  0
    5.2297   -2.8362    0.0000 C   0  0  0  0  0  0  0  0  0  0  0  0
    6.1857   -3.9922    0.0000 C   0  0  0  0  0  0  0  0  0  0  0  0
    4.4698    0.8288    0.0000 C   0  0  0  0  0  0  0  0  0  0  0  0
    3.3834   -0.2055    0.0000 O   0  0  0  0  0  0  0  0  0  0  0  0
    4.4805    2.3288    0.0000 N   0  0  0  0  0  0  0  0  0  0  0  0
    3.1868    3.0880    0.0000 C   0  0  0  0  0  0  0  0  0  0  0  0
    3.0810    1.5917    0.0000 C   0  0  0  0  0  0  0  0  0  0  0  0
    2.6940    0.1425    0.0000 C   0  0  0  0  0  0  0  0  0  0  0  0
    2.0396   -1.2072    0.0000 C   0  0  0  0  0  0  0  0  0  0  0  0
    1.1417   -2.4087    0.0000 C   0  0  0  0  0  0  0  0  0  0  0  0
    0.0326   -3.4186    0.0000 C   0  0  0  0  0  0  0  0  0  0  0  0
   -1.2476   -4.2004    0.0000 C   0  0  0  0  0  0  0  0  0  0  0  0
   -2.6526   -4.7257    0.0000 C   0  0  0  0  0  0  0  0  0  0  0  0
    4.4416    3.9100    0.0000 C   0  0  0  0  0  0  0  0  0  0  0  0
    3.0076    4.5773    0.0000 C   0  0  0  0  0  0  0  0  0  0  0  0
    4.4231    5.0735    0.0000 O   0  0  0  0  0  0  0  0  0  0  0  0
    2.5497    6.0057    0.0000 N   0  0  0  0  0  0  0  0  0  0  0  0
    1.8297    7.3216    0.0000 C   0  0  0  0  0  0  0  0  0  0  0  0
    2.4409    8.6914    0.0000 C   0  0  0  0  0  0  0  0  0  0  0  0
    3.9328    8.8471    0.0000 C   0  0  0  0  0  0  0  0  0  0  0  0
    4.5440   10.2169    0.0000 O   0  0  0  0  0  0  0  0  0  0  0  0
    4.8136    7.6329    0.0000 O   0  0  0  0  0  0  0  0  0  0  0  0
    0.8738    8.4775    0.0000 C   0  0  0  0  0  0  0  0  0  0  0  0
    1.7963    9.6603    0.0000 O   0  0  0  0  0  0  0  0  0  0  0  0
   -0.2837    9.4316    0.0000 N   0  0  0  0  0  0  0  0  0  0  0  0
   -1.6008   10.1494    0.0000 C   0  0  0  0  0  0  0  0  0  0  0  0
   -1.8272   11.6322    0.0000 C   0  0  0  0  0  0  0  0  0  0  0  0
   -0.6563   12.5697    0.0000 C   0  0  0  0  0  0  0  0  0  0  0  0
   -0.8827   14.0526    0.0000 C   0  0  0  0  0  0  0  0  0  0  0  0
    0.2882   14.9901    0.0000 N   0  0  0  0  0  0  0  0  0  0  0  0
    0.0618   16.4729    0.0000 C   0  0  0  0  0  0  0  0  0  0  0  0
    1.2327   17.4104    0.0000 N   0  0  0  0  0  0  0  0  0  0  0  0
   -1.3356   17.0182    0.0000 N   0  0  0  0  0  0  0  0  0  0  0  0
   -3.0299   10.6050    0.0000 C   0  0  0  0  0  0  0  0  0  0  0  0
   -2.8933   12.0988    0.0000 O   0  0  0  0  0  0  0  0  0  0  0  0
   -4.5194   10.7819    0.0000 N   0  0  0  0  0  0  0  0  0  0  0  0
   -6.0155   10.6737    0.0000 C   0  0  0  0  0  0  0  0  0  0  0  0
   -7.0077   11.7987    0.0000 C   0  0  0  0  0  0  0  0  0  0  0  0
   -6.3598   13.1515    0.0000 C   0  0  0  0  0  0  0  0  0  0  0  0
   -8.3248   12.5165    0.0000 C   0  0  0  0  0  0  0  0  0  0  0  0
   -8.3617   14.0160    0.0000 C   0  0  0  0  0  0  0  0  0  0  0  0
   -7.4641   10.2843    0.0000 C   0  0  0  0  0  0  0  0  0  0  0  0
   -7.9894   11.6893    0.0000 O   0  0  0  0  0  0  0  0  0  0  0  0
   -8.8128    9.6278    0.0000 N   0  0  0  0  0  0  0  0  0  0  0  0
  -10.0129    8.7279    0.0000 C   0  0  0  0  0  0  0  0  0  0  0  0
  -11.4558    9.1379    0.0000 C   0  0  0  0  0  0  0  0  0  0  0  0
  -11.8221   10.5925    0.0000 C   0  0  0  0  0  0  0  0  0  0  0  0
  -13.2650   11.0025    0.0000 C   0  0  0  0  0  0  0  0  0  0  0  0
  -13.6314   12.4571    0.0000 C   0  0  0  0  0  0  0  0  0  0  0  0
  -15.0743   12.8671    0.0000 N   0  0  0  0  0  0  0  0  0  0  0  0
  -11.0210    7.6172    0.0000 C   0  0  0  0  0  0  0  0  0  0  0  0
  -12.3230    8.3620    0.0000 O   0  0  0  0  0  0  0  0  0  0  0  0
  -11.8007    6.3357    0.0000 N   0  0  0  0  0  0  0  0  0  0  0  0
  -12.3237    4.9299    0.0000 C   0  0  0  0  0  0  0  0  0  0  0  0
  -13.7592    4.4947    0.0000 C   0  0  0  0  0  0  0  0  0  0  0  0
  -14.8538    5.5203    0.0000 C   0  0  0  0  0  0  0  0  0  0  0  0
  -16.2893    5.0851    0.0000 C   0  0  0  0  0  0  0  0  0  0  0  0
  -17.3839    6.1107    0.0000 O   0  0  0  0  0  0  0  0  0  0  0  0
  -16.6302    3.6244    0.0000 O   0  0  0  0  0  0  0  0  0  0  0  0
  -12.5713    3.4504    0.0000 C   0  0  0  0  0  0  0  0  0  0  0  0
  -14.0693    3.3731    0.0000 O   0  0  0  0  0  0  0  0  0  0  0  0
  -12.5344    1.9509    0.0000 N   0  0  0  0  0  0  0  0  0  0  0  0
  -12.2144    0.4854    0.0000 C   0  0  0  0  0  0  0  0  0  0  0  0
  -13.1867   -0.6567    0.0000 C   0  0  0  0  0  0  0  0  0  0  0  0
  -14.6620   -0.3857    0.0000 C   0  0  0  0  0  0  0  0  0  0  0  0
  -15.6344   -1.5279    0.0000 C   0  0  0  0  0  0  0  0  0  0  0  0
  -15.9557    0.3735    0.0000 C   0  0  0  0  0  0  0  0  0  0  0  0
  -11.6228   -0.8930    0.0000 C   0  0  0  0  0  0  0  0  0  0  0  0
  -12.8411   -1.7680    0.0000 O   0  0  0  0  0  0  0  0  0  0  0  0
  -10.7810   -2.1345    0.0000 N   0  0  0  0  0  0  0  0  0  0  0  0
   -9.7195   -3.1943    0.0000 C   0  0  0  0  0  0  0  0  0  0  0  0
   -8.4766   -4.0341    0.0000 C   0  0  0  0  0  0  0  0  0  0  0  0
   -7.0972   -4.6235    0.0000 C   0  0  0  0  0  0  0  0  0  0  0  0
   -5.6313   -4.9411    0.0000 C   0  0  0  0  0  0  0  0  0  0  0  0
   -4.1317   -4.9756    0.0000 C   0  0  0  0  0  0  0  0  0  0  0  0
  -11.1405   -3.6748    0.0000 C   0  0  0  0  0  0  0  0  0  0  0  0
   -9.9200   -4.6809    0.0000 C   0  0  0  0  0  0  0  0  0  0  0  0
   -8.9900   -5.8578    0.0000 O   0  0  0  0  0  0  0  0  0  0  0  0
  -11.3076   -5.2505    0.0000 N   0  0  0  0  0  0  0  0  0  0  0  0
  -11.5081   -6.7371    0.0000 C   0  0  0  0  0  0  0  0  0  0  0  0
  -11.1881   -8.2025    0.0000 C   0  0  0  0  0  0  0  0  0  0  0  0
  -10.3861   -9.4702    0.0000 O   0  0  0  0  0  0  0  0  0  0  0  0
  -12.1658   -9.3401    0.0000 C   0  0  0  0  0  0  0  0  0  0  0  0
  -12.8957   -7.3067    0.0000 C   0  0  0  0  0  0  0  0  0  0  0  0
  -14.0829   -6.3898    0.0000 O   0  0  0  0  0  0  0  0  0  0  0  0
  -13.0962   -8.7932    0.0000 N   0  0  0  0  0  0  0  0  0  0  0  0
  -14.4839   -9.3629    0.0000 C   0  0  0  0  0  0  0  0  0  0  0  0
  -15.9826   -9.4236    0.0000 C   0  0  0  0  0  0  0  0  0  0  0  0
  -16.7846   -8.1559    0.0000 C   0  0  0  0  0  0  0  0  0  0  0  0
  -18.2833   -8.2166    0.0000 C   0  0  0  0  0  0  0  0  0  0  0  0
  -19.0853   -6.9490    0.0000 N   0  0  0  0  0  0  0  0  0  0  0  0
  -20.5841   -7.0097    0.0000 C   0  0  0  0  0  0  0  0  0  0  0  0
  -21.3860   -5.7421    0.0000 N   0  0  0  0  0  0  0  0  0  0  0  0
  -21.2809   -8.3380    0.0000 N   0  0  0  0  0  0  0  0  0  0  0  0
  -14.6843  -10.8494    0.0000 C   0  0  0  0  0  0  0  0  0  0  0  0
  -13.4972  -11.7663    0.0000 O   0  0  0  0  0  0  0  0  0  0  0  0
  -16.0720  -11.4191    0.0000 N   0  0  0  0  0  0  0  0  0  0  0  0
  -16.2725  -12.9056    0.0000 C   0  0  0  0  0  0  0  0  0  0  0  0
  -15.9524  -14.3711    0.0000 C   0  0  0  0  0  0  0  0  0  0  0  0
  -17.0615  -15.3810    0.0000 C   0  0  0  0  0  0  0  0  0  0  0  0
  -15.1505  -15.6387    0.0000 C   0  0  0  0  0  0  0  0  0  0  0  0
  -13.6517  -15.5780    0.0000 C   0  0  0  0  0  0  0  0  0  0  0  0
  -17.6601  -13.4752    0.0000 C   0  0  0  0  0  0  0  0  0  0  0  0
  -18.0403  -14.9263    0.0000 O   0  0  0  0  0  0  0  0  0  0  0  0
  -18.8472  -12.5583    0.0000 O   0  0  0  0  0  0  0  0  0  0  0  0
   22.0572   -0.3664    0.0000 H   0  0  0  0  0  0  0  0  0  0  0  0
   22.2081   -4.8564    0.0000 H   0  0  0  0  0  0  0  0  0  0  0  0
   24.7954   -6.3749    0.0000 H   0  0  0  0  0  0  0  0  0  0  0  0
   24.4749   -0.4170    0.0000 H   0  0  0  0  0  0  0  0  0  0  0  0
   31.4372    1.2684    0.0000 H   0  0  0  0  0  0  0  0  0  0  0  0
   32.4813   -3.8218    0.0000 H   0  0  0  0  0  0  0  0  0  0  0  0
   29.5424   -4.4246    0.0000 H   0  0  0  0  0  0  0  0  0  0  0  0
   34.4243   -2.0971    0.0000 H   0  0  0  0  0  0  0  0  0  0  0  0
   24.6122   -2.7837    0.0000 H   0  0  0  0  0  0  0  0  0  0  0  0
   22.5950   -0.3586    0.0000 H   0  0  0  0  0  0  0  0  0  0  0  0
   26.5069    2.9093    0.0000 H   0  0  0  0  0  0  0  0  0  0  0  0
   24.0418    3.7297    0.0000 H   0  0  0  0  0  0  0  0  0  0  0  0
   19.6422   -0.3380    0.0000 H   0  0  0  0  0  0  0  0  0  0  0  0
   19.2831   -3.7346    0.0000 H   0  0  0  0  0  0  0  0  0  0  0  0
   17.6600   -3.9222    0.0000 H   0  0  0  0  0  0  0  0  0  0  0  0
   18.0058   -0.6773    0.0000 H   0  0  0  0  0  0  0  0  0  0  0  0
   16.0775   -0.6635    0.0000 H   0  0  0  0  0  0  0  0  0  0  0  0
   14.4461   -0.3009    0.0000 H   0  0  0  0  0  0  0  0  0  0  0  0
   12.6281   -1.1285    0.0000 H   0  0  0  0  0  0  0  0  0  0  0  0
   14.4140   -5.1615    0.0000 H   0  0  0  0  0  0  0  0  0  0  0  0
   12.8827   -4.5917    0.0000 H   0  0  0  0  0  0  0  0  0  0  0  0
   16.8704   -2.7069    0.0000 H   0  0  0  0  0  0  0  0  0  0  0  0
   15.4200   -1.9547    0.0000 H   0  0  0  0  0  0  0  0  0  0  0  0
   17.0250   -6.0167    0.0000 H   0  0  0  0  0  0  0  0  0  0  0  0
   15.3177   -5.4977    0.0000 H   0  0  0  0  0  0  0  0  0  0  0  0
   18.8488   -3.1161    0.0000 H   0  0  0  0  0  0  0  0  0  0  0  0
   21.3920   -6.4155    0.0000 H   0  0  0  0  0  0  0  0  0  0  0  0
   21.1266   -3.9279    0.0000 H   0  0  0  0  0  0  0  0  0  0  0  0
   19.3900   -8.0712    0.0000 H   0  0  0  0  0  0  0  0  0  0  0  0
   16.9550   -7.1653    0.0000 H   0  0  0  0  0  0  0  0  0  0  0  0
   11.2192   -0.2298    0.0000 H   0  0  0  0  0  0  0  0  0  0  0  0
    9.2278   -0.3856    0.0000 H   0  0  0  0  0  0  0  0  0  0  0  0
    9.7093   -4.7987    0.0000 H   0  0  0  0  0  0  0  0  0  0  0  0
    8.2410   -3.5487    0.0000 H   0  0  0  0  0  0  0  0  0  0  0  0
   13.1296   -5.4317    0.0000 H   0  0  0  0  0  0  0  0  0  0  0  0
   10.7260   -6.1251    0.0000 H   0  0  0  0  0  0  0  0  0  0  0  0
    8.2111    0.9407    0.0000 H   0  0  0  0  0  0  0  0  0  0  0  0
    6.2865    1.4754    0.0000 H   0  0  0  0  0  0  0  0  0  0  0  0
    4.2775   -1.1594    0.0000 H   0  0  0  0  0  0  0  0  0  0  0  0
    7.2187   -3.6797    0.0000 H   0  0  0  0  0  0  0  0  0  0  0  0
    8.5217   -2.4606    0.0000 H   0  0  0  0  0  0  0  0  0  0  0  0
    7.9279   -0.9814    0.0000 H   0  0  0  0  0  0  0  0  0  0  0  0
    4.2574   -3.9784    0.0000 H   0  0  0  0  0  0  0  0  0  0  0  0
    3.9360   -2.0770    0.0000 H   0  0  0  0  0  0  0  0  0  0  0  0
    5.6626   -5.3980    0.0000 H   0  0  0  0  0  0  0  0  0  0  0  0
    7.4793   -4.7514    0.0000 H   0  0  0  0  0  0  0  0  0  0  0  0
    7.5028   -3.2744    0.0000 H   0  0  0  0  0  0  0  0  0  0  0  0
    5.8654    2.9050    0.0000 H   0  0  0  0  0  0  0  0  0  0  0  0
    4.5653    1.8087    0.0000 H   0  0  0  0  0  0  0  0  0  0  0  0
    4.0785    0.4715    0.0000 H   0  0  0  0  0  0  0  0  0  0  0  0
    4.1730   -0.1075    0.0000 H   0  0  0  0  0  0  0  0  0  0  0  0
    3.6128   -1.0431    0.0000 H   0  0  0  0  0  0  0  0  0  0  0  0
    3.5396   -1.1941    0.0000 H   0  0  0  0  0  0  0  0  0  0  0  0
    2.8755   -2.4527    0.0000 H   0  0  0  0  0  0  0  0  0  0  0  0
    2.5730   -2.8576    0.0000 H   0  0  0  0  0  0  0  0  0  0  0  0
    1.7267   -3.7899    0.0000 H   0  0  0  0  0  0  0  0  0  0  0  0
    1.3531   -4.1302    0.0000 H   0  0  0  0  0  0  0  0  0  0  0  0
    0.3457   -4.8856    0.0000 H   0  0  0  0  0  0  0  0  0  0  0  0
   -0.0857   -5.1490    0.0000 H   0  0  0  0  0  0  0  0  0  0  0  0
   -1.4008   -5.6925    0.0000 H   0  0  0  0  0  0  0  0  0  0  0  0
   -2.2632   -6.1743    0.0000 H   0  0  0  0  0  0  0  0  0  0  0  0
    5.8532    3.4026    0.0000 H   0  0  0  0  0  0  0  0  0  0  0  0
    5.4793    4.9931    0.0000 H   0  0  0  0  0  0  0  0  0  0  0  0
    3.7092    5.2190    0.0000 H   0  0  0  0  0  0  0  0  0  0  0  0
    3.9281    6.5973    0.0000 H   0  0  0  0  0  0  0  0  0  0  0  0
    3.3285    7.3823    0.0000 H   0  0  0  0  0  0  0  0  0  0  0  0
    2.7283   10.1637    0.0000 H   0  0  0  0  0  0  0  0  0  0  0  0
    1.1171    9.3968    0.0000 H   0  0  0  0  0  0  0  0  0  0  0  0
    0.7013   10.5629    0.0000 H   0  0  0  0  0  0  0  0  0  0  0  0
   -0.2769   10.8547    0.0000 H   0  0  0  0  0  0  0  0  0  0  0  0
   -2.5471   12.9482    0.0000 H   0  0  0  0  0  0  0  0  0  0  0  0
   -3.3222   11.5099    0.0000 H   0  0  0  0  0  0  0  0  0  0  0  0
    0.7647   13.0502    0.0000 H   0  0  0  0  0  0  0  0  0  0  0  0
    0.3607   11.4671    0.0000 H   0  0  0  0  0  0  0  0  0  0  0  0
   -1.6026   15.3685    0.0000 H   0  0  0  0  0  0  0  0  0  0  0  0
   -2.3516   13.7489    0.0000 H   0  0  0  0  0  0  0  0  0  0  0  0
    1.6856   14.4448    0.0000 H   0  0  0  0  0  0  0  0  0  0  0  0
    1.0063   18.8932    0.0000 H   0  0  0  0  0  0  0  0  0  0  0  0
    2.6301   16.8651    0.0000 H   0  0  0  0  0  0  0  0  0  0  0  0
   -1.5620   18.5010    0.0000 H   0  0  0  0  0  0  0  0  0  0  0  0
   -2.5065   16.0807    0.0000 H   0  0  0  0  0  0  0  0  0  0  0  0
   -4.3024   12.2661    0.0000 H   0  0  0  0  0  0  0  0  0  0  0  0
   -5.2831   11.9827    0.0000 H   0  0  0  0  0  0  0  0  0  0  0  0
   -8.1992   10.8875    0.0000 H   0  0  0  0  0  0  0  0  0  0  0  0
   -7.3675   14.4781    0.0000 H   0  0  0  0  0  0  0  0  0  0  0  0
   -5.5939   14.3929    0.0000 H   0  0  0  0  0  0  0  0  0  0  0  0
   -5.0778   12.8426    0.0000 H   0  0  0  0  0  0  0  0  0  0  0  0
   -9.8080   12.7405    0.0000 H   0  0  0  0  0  0  0  0  0  0  0  0
   -8.9727   11.1636    0.0000 H   0  0  0  0  0  0  0  0  0  0  0  0
   -9.6788   14.7339    0.0000 H   0  0  0  0  0  0  0  0  0  0  0  0
   -7.8835   15.4378    0.0000 H   0  0  0  0  0  0  0  0  0  0  0  0
   -6.8684   14.1575    0.0000 H   0  0  0  0  0  0  0  0  0  0  0  0
   -9.5945   10.9080    0.0000 H   0  0  0  0  0  0  0  0  0  0  0  0
  -10.1045   10.2251    0.0000 H   0  0  0  0  0  0  0  0  0  0  0  0
  -12.9519    9.0297    0.0000 H   0  0  0  0  0  0  0  0  0  0  0  0
  -11.9655    7.7272    0.0000 H   0  0  0  0  0  0  0  0  0  0  0  0
  -11.4882   12.0548    0.0000 H   0  0  0  0  0  0  0  0  0  0  0  0
  -10.3967   11.0595    0.0000 H   0  0  0  0  0  0  0  0  0  0  0  0
  -14.7368   10.7127    0.0000 H   0  0  0  0  0  0  0  0  0  0  0  0
  -13.5990    9.5401    0.0000 H   0  0  0  0  0  0  0  0  0  0  0  0
  -13.4782   13.9492    0.0000 H   0  0  0  0  0  0  0  0  0  0  0  0
  -12.1596   12.7468    0.0000 H   0  0  0  0  0  0  0  0  0  0  0  0
  -15.4406   14.3216    0.0000 H   0  0  0  0  0  0  0  0  0  0  0  0
  -16.5703   12.7588    0.0000 H   0  0  0  0  0  0  0  0  0  0  0  0
  -15.4082   11.4047    0.0000 H   0  0  0  0  0  0  0  0  0  0  0  0
  -13.0606    7.1497    0.0000 H   0  0  0  0  0  0  0  0  0  0  0  0
  -13.2102    6.1399    0.0000 H   0  0  0  0  0  0  0  0  0  0  0  0
  -15.0601    3.7478    0.0000 H   0  0  0  0  0  0  0  0  0  0  0  0
  -13.4253    3.0323    0.0000 H   0  0  0  0  0  0  0  0  0  0  0  0
  -15.5316    6.8584    0.0000 H   0  0  0  0  0  0  0  0  0  0  0  0
  -13.9072    6.6838    0.0000 H   0  0  0  0  0  0  0  0  0  0  0  0
  -14.0344    1.9545    0.0000 H   0  0  0  0  0  0  0  0  0  0  0  0
  -13.6143    1.0241    0.0000 H   0  0  0  0  0  0  0  0  0  0  0  0
  -13.7098   -2.0626    0.0000 H   0  0  0  0  0  0  0  0  0  0  0  0
  -12.1152   -1.7064    0.0000 H   0  0  0  0  0  0  0  0  0  0  0  0
  -14.4947    1.1049    0.0000 H   0  0  0  0  0  0  0  0  0  0  0  0
  -17.1317   -1.4388    0.0000 H   0  0  0  0  0  0  0  0  0  0  0  0
  -16.1574   -2.9338    0.0000 H   0  0  0  0  0  0  0  0  0  0  0  0
  -14.4429   -2.4392    0.0000 H   0  0  0  0  0  0  0  0  0  0  0  0
  -17.3406   -0.2027    0.0000 H   0  0  0  0  0  0  0  0  0  0  0  0
  -16.9116    1.5294    0.0000 H   0  0  0  0  0  0  0  0  0  0  0  0
  -14.9833    1.5157    0.0000 H   0  0  0  0  0  0  0  0  0  0  0  0
  -12.0448   -2.9425    0.0000 H   0  0  0  0  0  0  0  0  0  0  0  0
   -8.3921   -5.5317    0.0000 H   0  0  0  0  0  0  0  0  0  0  0  0
   -9.5630   -5.0684    0.0000 H   0  0  0  0  0  0  0  0  0  0  0  0
   -6.9109   -6.1119    0.0000 H   0  0  0  0  0  0  0  0  0  0  0  0
   -7.9682   -5.8447    0.0000 H   0  0  0  0  0  0  0  0  0  0  0  0
   -4.9962   -6.3001    0.0000 H   0  0  0  0  0  0  0  0  0  0  0  0
   -6.4170   -6.2189    0.0000 H   0  0  0  0  0  0  0  0  0  0  0  0
   -4.0234   -6.4717    0.0000 H   0  0  0  0  0  0  0  0  0  0  0  0
  -11.7820   -5.0307    0.0000 H   0  0  0  0  0  0  0  0  0  0  0  0
  -12.6401   -3.6403    0.0000 H   0  0  0  0  0  0  0  0  0  0  0  0
  -11.7190   -2.2909    0.0000 H   0  0  0  0  0  0  0  0  0  0  0  0
  -12.5977   -4.4852    0.0000 H   0  0  0  0  0  0  0  0  0  0  0  0
  -10.0093   -6.6764    0.0000 H   0  0  0  0  0  0  0  0  0  0  0  0
   -9.8005   -7.6329    0.0000 H   0  0  0  0  0  0  0  0  0  0  0  0
   -8.8874   -9.4095    0.0000 H   0  0  0  0  0  0  0  0  0  0  0  0
  -11.9772  -10.6779    0.0000 H   0  0  0  0  0  0  0  0  0  0  0  0
  -13.6848   -9.7821    0.0000 H   0  0  0  0  0  0  0  0  0  0  0  0
  -13.6005   -8.4698    0.0000 H   0  0  0  0  0  0  0  0  0  0  0  0
  -12.0297   -9.8480    0.0000 H   0  0  0  0  0  0  0  0  0  0  0  0
  -14.6229   -7.8693    0.0000 H   0  0  0  0  0  0  0  0  0  0  0  0
  -17.3702   -9.9932    0.0000 H   0  0  0  0  0  0  0  0  0  0  0  0
  -16.0267  -10.9229    0.0000 H   0  0  0  0  0  0  0  0  0  0  0  0
  -17.1046   -6.6905    0.0000 H   0  0  0  0  0  0  0  0  0  0  0  0
  -15.4767   -7.4214    0.0000 H   0  0  0  0  0  0  0  0  0  0  0  0
  -19.6710   -8.7863    0.0000 H   0  0  0  0  0  0  0  0  0  0  0  0
  -18.1443   -9.7102    0.0000 H   0  0  0  0  0  0  0  0  0  0  0  0
  -18.3885   -5.6207    0.0000 H   0  0  0  0  0  0  0  0  0  0  0  0
  -22.8848   -5.8028    0.0000 H   0  0  0  0  0  0  0  0  0  0  0  0
  -20.6892   -4.4138    0.0000 H   0  0  0  0  0  0  0  0  0  0  0  0
  -22.7797   -8.3987    0.0000 H   0  0  0  0  0  0  0  0  0  0  0  0
  -20.4789   -9.6056    0.0000 H   0  0  0  0  0  0  0  0  0  0  0  0
  -17.3620  -10.6537    0.0000 H   0  0  0  0  0  0  0  0  0  0  0  0
  -14.7737  -12.8449    0.0000 H   0  0  0  0  0  0  0  0  0  0  0  0
  -14.6446  -13.6365    0.0000 H   0  0  0  0  0  0  0  0  0  0  0  0
  -16.9225  -16.8745    0.0000 H   0  0  0  0  0  0  0  0  0  0  0  0
  -18.4492  -15.9506    0.0000 H   0  0  0  0  0  0  0  0  0  0  0  0
  -18.2646  -14.4850    0.0000 H   0  0  0  0  0  0  0  0  0  0  0  0
  -14.8305  -17.1042    0.0000 H   0  0  0  0  0  0  0  0  0  0  0  0
  -16.4583  -16.3732    0.0000 H   0  0  0  0  0  0  0  0  0  0  0  0
  -12.8498  -16.8456    0.0000 H   0  0  0  0  0  0  0  0  0  0  0  0
  -12.2641  -15.0084    0.0000 H   0  0  0  0  0  0  0  0  0  0  0  0
  -13.7907  -14.0845    0.0000 H   0  0  0  0  0  0  0  0  0  0  0  0
  1  2  1  0
  2  3  1  0
  3  4  2  0
  4  5  1  0
  5  6  2  0
  6  7  1  0
  7  8  2  0
  7  9  1  0
  9 10  1  0
 10 11  1  0
 11 12  2  0
  9 13  1  0
 13 14  1  0
 14 15  2  0
 15 16  1  0
 16 17  2  0
 17 18  1  0
 16 19  1  0
 14 20  1  0
 20 21  1  0
 21 22  2  0
 22 23  1  0
 23 24  2  0
 24 25  1  0
 25 26  2  0
 25 27  1  0
  1 28  2  0
  1 29  1  0
 29 30  1  0
 30 31  1  0
 31 32  1  0
 32 33  2  0
 32 34  1  0
 34 35  1  0
 35 36  1  0
 36 37  1  0
 37 38  1  0
 38 39  1  0
 39 40  1  0
 40 41  2  3
 40 42  1  0
 35 43  1  0
 43 44  2  0
 43 45  1  0
 45 46  1  0
 46 47  1  0
 47 48  1  0
 48 49  1  0
 48 50  2  0
 46 51  1  0
 51 52  2  0
 51 53  1  0
 53 54  1  0
 54 55  1  0
 55 56  1  0
 55 57  1  0
 57 58  1  0
 54 59  1  0
 59 60  2  0
 59 61  1  0
 62 61  1  6
 62 63  1  0
 63 64  1  0
 64 65  1  0
 65 66  1  0
 66 67  1  0
 67 68  1  0
 68 69  1  0
 62 70  1  0
 62 71  1  0
 71 72  2  0
 71 73  1  0
 73 74  1  0
 74 75  1  0
 75 76  1  0
 76 77  2  0
 76 78  1  0
 74 79  1  0
 79 80  2  0
 79 81  1  0
 81 82  1  0
 82 83  1  0
 83 84  1  0
 84 85  1  0
 85 86  1  0
 86 87  1  0
 87 88  2  3
 87 89  1  0
 82 90  1  0
 90 91  2  0
 90 92  1  0
 92 93  1  0
 93 94  1  0
 94 95  1  0
 94 96  1  0
 96 97  1  0
 93 98  1  0
 98 99  2  0
 98100  1  0
100101  1  0
101102  1  0
102103  1  0
103104  1  0
104105  1  0
105106  1  0
101107  1  0
107108  2  0
107109  1  0
109110  1  0
110111  1  0
111112  1  0
112113  1  0
113114  2  0
113115  1  0
110116  1  0
116117  2  0
116118  1  0
118119  1  0
119120  1  0
120121  1  0
121122  1  0
121123  1  0
119124  1  0
124125  2  0
124126  1  0
126127  1  0
127128  1  0
128129  1  0
129130  1  0
130131  1  0
127132  1  0
127133  1  1
133134  2  0
133135  1  0
135136  1  0
136137  1  0
137138  1  0
137139  1  0
136140  1  0
140141  2  0
140142  1  0
142143  1  0
143144  1  0
144145  1  0
145146  1  0
146147  1  0
147148  1  0
148149  2  3
148150  1  0
143151  1  0
151152  2  0
151153  1  0
153154  1  0
154155  1  0
155156  1  0
155157  1  0
157158  1  0
154159  1  0
159160  2  0
159161  1  0
  8  3  1  0
 11  6  1  0
 18 13  2  0
 69131  2  0
 22  9  1  0
 26 21  1  0
  2162  1  0
  4163  1  0
  5164  1  0
  8165  1  0
 15166  1  0
 17167  1  0
 18168  1  0
 19169  1  0
 23170  1  0
 24171  1  0
 26172  1  0
 27173  1  0
 29174  1  0
 30175  1  0
 30176  1  0
 31177  1  0
 31178  1  0
 34179  1  0
 35180  1  1
 36181  1  0
 36182  1  0
 37183  1  0
 37184  1  0
 38185  1  0
 38186  1  0
 39187  1  0
 41188  1  0
 41189  1  0
 42190  1  0
 42191  1  0
 45192  1  0
 46193  1  1
 47194  1  0
 47195  1  0
 49196  1  0
 49197  1  0
 53198  1  0
 54199  1  1
 55200  1  6
 56201  1  0
 56202  1  0
 56203  1  0
 57204  1  0
 57205  1  0
 58206  1  0
 58207  1  0
 58208  1  0
 61209  1  0
 63210  1  0
 63211  1  0
 64212  1  0
 64213  1  0
 65214  1  0
 65215  1  0
 66216  1  0
 66217  1  0
 67218  1  0
 67219  1  0
 68220  1  0
 68221  1  0
 69222  1  0
 70223  1  0
 70224  1  0
 70225  1  0
 73226  1  0
 74227  1  6
 75228  1  0
 75229  1  0
 81230  1  0
 82231  1  6
 83232  1  0
 83233  1  0
 84234  1  0
 84235  1  0
 85236  1  0
 85237  1  0
 86238  1  0
 88239  1  0
 88240  1  0
 89241  1  0
 89242  1  0
 92243  1  0
 93244  1  6
 94245  1  1
 95246  1  0
 95247  1  0
 95248  1  0
 96249  1  0
 96250  1  0
 97251  1  0
 97252  1  0
 97253  1  0
100254  1  0
101255  1  6
102256  1  0
102257  1  0
103258  1  0
103259  1  0
104260  1  0
104261  1  0
105262  1  0
105263  1  0
106264  1  0
106265  1  0
106266  1  0
109267  1  0
110268  1  6
111269  1  0
111270  1  0
112271  1  0
112272  1  0
118273  1  0
119274  1  6
120275  1  0
120276  1  0
121277  1  0
122278  1  0
122279  1  0
122280  1  0
123281  1  0
123282  1  0
123283  1  0
126284  1  0
128285  1  0
128286  1  0
129287  1  0
129288  1  0
130289  1  0
130290  1  0
131291  1  0
132292  1  0
132293  1  0
132294  1  0
135295  1  0
136296  1  1
137297  1  1
138298  1  0
139299  1  0
139300  1  0
139301  1  0
142302  1  0
143303  1  6
144304  1  0
144305  1  0
145306  1  0
145307  1  0
146308  1  0
146309  1  0
147310  1  0
149311  1  0
149312  1  0
150313  1  0
150314  1  0
153315  1  0
154316  1  1
155317  1  1
156318  1  0
156319  1  0
156320  1  0
157321  1  0
157322  1  0
158323  1  0
158324  1  0
158325  1  0
M  CHG  7  41   1  78  -1  88   1 106   1 115  -1 149   1 161  -1
M  END
