
     RDKit          2D

343351  0  0  0  0  0  0  0  0999 V2000
   15.6171   -4.2613    0.0000 C   0  0  0  0  0  0  0  0  0  0  0  0
   16.8891   -5.0562    0.0000 N   0  0  0  0  0  0  0  0  0  0  0  0
   16.8367   -6.5553    0.0000 C   0  0  0  0  0  0  0  0  0  0  0  0
   15.5122   -7.2594    0.0000 C   0  0  0  0  0  0  0  0  0  0  0  0
   15.4598   -8.7585    0.0000 C   0  0  0  0  0  0  0  0  0  0  0  0
   16.7318   -9.5535    0.0000 C   0  0  0  0  0  0  0  0  0  0  0  0
   18.0563   -8.8493    0.0000 C   0  0  0  0  0  0  0  0  0  0  0  0
   18.1087   -7.3503    0.0000 C   0  0  0  0  0  0  0  0  0  0  0  0
   19.1352   -9.8914    0.0000 C   0  0  0  0  0  0  0  0  0  0  0  0
   18.4776  -11.2396    0.0000 O   0  0  0  0  0  0  0  0  0  0  0  0
   16.9922  -11.0307    0.0000 C   0  0  0  0  0  0  0  0  0  0  0  0
   15.9501  -12.1096    0.0000 O   0  0  0  0  0  0  0  0  0  0  0  0
   20.0993  -11.0405    0.0000 C   0  0  0  0  0  0  0  0  0  0  0  0
   21.5765  -10.7802    0.0000 C   0  0  0  0  0  0  0  0  0  0  0  0
   22.5406  -11.9293    0.0000 C   0  0  0  0  0  0  0  0  0  0  0  0
   22.0275  -13.3388    0.0000 C   0  0  0  0  0  0  0  0  0  0  0  0
   20.5503  -13.5992    0.0000 C   0  0  0  0  0  0  0  0  0  0  0  0
   19.5862  -12.4500    0.0000 C   0  0  0  0  0  0  0  0  0  0  0  0
   22.9916  -14.4879    0.0000 O   0  0  0  0  0  0  0  0  0  0  0  0
   22.0897   -9.3707    0.0000 O   0  0  0  0  0  0  0  0  0  0  0  0
   21.1256   -8.2215    0.0000 C   0  0  0  0  0  0  0  0  0  0  0  0
   19.6483   -8.4819    0.0000 C   0  0  0  0  0  0  0  0  0  0  0  0
   19.3736   -7.2113    0.0000 C   0  0  0  0  0  0  0  0  0  0  0  0
   19.6473   -6.4595    0.0000 C   0  0  0  0  0  0  0  0  0  0  0  0
   20.4351   -6.3207    0.0000 C   0  0  0  0  0  0  0  0  0  0  0  0
   20.9493   -6.9335    0.0000 C   0  0  0  0  0  0  0  0  0  0  0  0
   21.1877   -4.2534    0.0000 O   0  0  0  0  0  0  0  0  0  0  0  0
   14.2926   -4.9654    0.0000 S   0  0  0  0  0  0  0  0  0  0  0  0
   15.6696   -2.7622    0.0000 N   0  0  0  0  0  0  0  0  0  0  0  0
   14.3975   -1.9672    0.0000 C   0  0  0  0  0  0  0  0  0  0  0  0
   14.4500   -0.4681    0.0000 C   0  0  0  0  0  0  0  0  0  0  0  0
   13.1780    0.3268    0.0000 C   0  0  0  0  0  0  0  0  0  0  0  0
   12.1939   -0.8052    0.0000 O   0  0  0  0  0  0  0  0  0  0  0  0
   13.2304    1.8259    0.0000 N   0  0  0  0  0  0  0  0  0  0  0  0
   11.9584    2.6209    0.0000 C   0  0  0  0  0  0  0  0  0  0  0  0
   11.7569    1.1345    0.0000 C   0  0  0  0  0  0  0  0  0  0  0  0
   11.1263   -0.2265    0.0000 C   0  0  0  0  0  0  0  0  0  0  0  0
   10.1226   -1.3412    0.0000 C   0  0  0  0  0  0  0  0  0  0  0  0
    8.8348   -2.1104    0.0000 C   0  0  0  0  0  0  0  0  0  0  0  0
   13.2062    3.4534    0.0000 C   0  0  0  0  0  0  0  0  0  0  0  0
   11.7128    4.1006    0.0000 C   0  0  0  0  0  0  0  0  0  0  0  0
   13.1394    4.5641    0.0000 O   0  0  0  0  0  0  0  0  0  0  0  0
   11.0419    5.4422    0.0000 N   0  0  0  0  0  0  0  0  0  0  0  0
   10.0054    6.5265    0.0000 C   0  0  0  0  0  0  0  0  0  0  0  0
   10.1325    8.0211    0.0000 C   0  0  0  0  0  0  0  0  0  0  0  0
   11.4904    8.6583    0.0000 C   0  0  0  0  0  0  0  0  0  0  0  0
   11.6175   10.1529    0.0000 C   0  0  0  0  0  0  0  0  0  0  0  0
   12.9754   10.7902    0.0000 N   0  0  0  0  0  0  0  0  0  0  0  0
   13.1025   12.2848    0.0000 C   0  0  0  0  0  0  0  0  0  0  0  0
   14.4604   12.9220    0.0000 N   0  0  0  0  0  0  0  0  0  0  0  0
   11.8717   13.1421    0.0000 N   0  0  0  0  0  0  0  0  0  0  0  0
    8.6953    7.2571    0.0000 C   0  0  0  0  0  0  0  0  0  0  0  0
    9.2224    8.6614    0.0000 O   0  0  0  0  0  0  0  0  0  0  0  0
    7.2281    7.5690    0.0000 N   0  0  0  0  0  0  0  0  0  0  0  0
    5.7341    7.4347    0.0000 C   0  0  0  0  0  0  0  0  0  0  0  0
    4.6448    8.4659    0.0000 C   0  0  0  0  0  0  0  0  0  0  0  0
    4.9933    9.9249    0.0000 C   0  0  0  0  0  0  0  0  0  0  0  0
    3.9040   10.9561    0.0000 C   0  0  0  0  0  0  0  0  0  0  0  0
    4.2525   12.4151    0.0000 N   0  0  0  0  0  0  0  0  0  0  0  0
    3.1632   13.4463    0.0000 C   0  0  0  0  0  0  0  0  0  0  0  0
    3.5116   14.9053    0.0000 N   0  0  0  0  0  0  0  0  0  0  0  0
    1.7254   13.0186    0.0000 N   0  0  0  0  0  0  0  0  0  0  0  0
    4.3461    6.8659    0.0000 C   0  0  0  0  0  0  0  0  0  0  0  0
    3.5769    8.1536    0.0000 O   0  0  0  0  0  0  0  0  0  0  0  0
    3.1874    5.9133    0.0000 N   0  0  0  0  0  0  0  0  0  0  0  0
    2.3610    4.6615    0.0000 C   0  0  0  0  0  0  0  0  0  0  0  0
    0.8756    4.4529    0.0000 C   0  0  0  0  0  0  0  0  0  0  0  0
   -0.0478    5.6349    0.0000 C   0  0  0  0  0  0  0  0  0  0  0  0
   -1.5332    5.4263    0.0000 C   0  0  0  0  0  0  0  0  0  0  0  0
   -2.4566    6.6083    0.0000 N   0  0  0  0  0  0  0  0  0  0  0  0
   -3.9421    6.3997    0.0000 C   0  0  0  0  0  0  0  0  0  0  0  0
   -4.7145    7.6855    0.0000 N   0  0  0  0  0  0  0  0  0  0  0  0
   -4.8239    5.1863    0.0000 N   0  0  0  0  0  0  0  0  0  0  0  0
    1.9403    3.2217    0.0000 C   0  0  0  0  0  0  0  0  0  0  0  0
    1.1635    3.6474    0.0000 O   0  0  0  0  0  0  0  0  0  0  0  0
    1.9626    1.7219    0.0000 N   0  0  0  0  0  0  0  0  0  0  0  0
    2.4261    0.2953    0.0000 C   0  0  0  0  0  0  0  0  0  0  0  0
    3.2894   -0.9314    0.0000 C   0  0  0  0  0  0  0  0  0  0  0  0
    4.4759   -1.8490    0.0000 C   0  0  0  0  0  0  0  0  0  0  0  0
    5.8803   -2.3762    0.0000 C   0  0  0  0  0  0  0  0  0  0  0  0
    7.3776   -2.4660    0.0000 C   0  0  0  0  0  0  0  0  0  0  0  0
    2.2923   -1.2930    0.0000 C   0  0  0  0  0  0  0  0  0  0  0  0
    2.5345   -2.6383    0.0000 C   0  0  0  0  0  0  0  0  0  0  0  0
    2.5177   -4.0051    0.0000 C   0  0  0  0  0  0  0  0  0  0  0  0
    2.2425   -5.3440    0.0000 C   0  0  0  0  0  0  0  0  0  0  0  0
    1.0752    1.1411    0.0000 C   0  0  0  0  0  0  0  0  0  0  0  0
    2.8211    2.4797    0.0000 O   0  0  0  0  0  0  0  0  0  0  0  0
    0.1441    2.1420    0.0000 N   0  0  0  0  0  0  0  0  0  0  0  0
   -0.9595    2.9485    0.0000 C   0  0  0  0  0  0  0  0  0  0  0  0
   -0.6312    5.0501    0.0000 C   0  0  0  0  0  0  0  0  0  0  0  0
   -1.9446    5.7747    0.0000 C   0  0  0  0  0  0  0  0  0  0  0  0
   -1.9737    7.2744    0.0000 C   0  0  0  0  0  0  0  0  0  0  0  0
   -3.2871    7.9990    0.0000 N   0  0  0  0  0  0  0  0  0  0  0  0
   -3.3162    9.4988    0.0000 C   0  0  0  0  0  0  0  0  0  0  0  0
   -4.4152   10.5196    0.0000 N   0  0  0  0  0  0  0  0  0  0  0  0
   -2.0320   10.2738    0.0000 N   0  0  0  0  0  0  0  0  0  0  0  0
   -2.1958    3.5316    0.0000 C   0  0  0  0  0  0  0  0  0  0  0  0
   -2.1730    5.6749    0.0000 O   0  0  0  0  0  0  0  0  0  0  0  0
   -3.5201    3.8702    0.0000 N   0  0  0  0  0  0  0  0  0  0  0  0
   -4.8846    3.9520    0.0000 C   0  0  0  0  0  0  0  0  0  0  0  0
   -5.7446    5.8975    0.0000 C   0  0  0  0  0  0  0  0  0  0  0  0
   -5.0833    7.2438    0.0000 C   0  0  0  0  0  0  0  0  0  0  0  0
   -5.9186    8.4897    0.0000 C   0  0  0  0  0  0  0  0  0  0  0  0
   -5.2573    9.8361    0.0000 N   0  0  0  0  0  0  0  0  0  0  0  0
   -6.0927   11.0819    0.0000 C   0  0  0  0  0  0  0  0  0  0  0  0
   -5.4313   12.4283    0.0000 N   0  0  0  0  0  0  0  0  0  0  0  0
   -7.5893   10.9815    0.0000 N   0  0  0  0  0  0  0  0  0  0  0  0
   -6.2399    3.7741    0.0000 C   0  0  0  0  0  0  0  0  0  0  0  0
   -6.9079    5.8665    0.0000 O   0  0  0  0  0  0  0  0  0  0  0  0
   -7.5371    3.3430    0.0000 N   0  0  0  0  0  0  0  0  0  0  0  0
   -8.7292    2.6742    0.0000 C   0  0  0  0  0  0  0  0  0  0  0  0
  -10.5044    3.8458    0.0000 C   0  0  0  0  0  0  0  0  0  0  0  0
  -10.6760    5.3360    0.0000 C   0  0  0  0  0  0  0  0  0  0  0  0
  -12.0523    5.9325    0.0000 C   0  0  0  0  0  0  0  0  0  0  0  0
  -12.2239    7.4226    0.0000 N   0  0  0  0  0  0  0  0  0  0  0  0
  -13.6002    8.0191    0.0000 C   0  0  0  0  0  0  0  0  0  0  0  0
  -13.7717    9.5093    0.0000 N   0  0  0  0  0  0  0  0  0  0  0  0
  -14.8049    7.1255    0.0000 N   0  0  0  0  0  0  0  0  0  0  0  0
   -9.7731    1.7918    0.0000 C   0  0  0  0  0  0  0  0  0  0  0  0
  -11.4664    3.1909    0.0000 O   0  0  0  0  0  0  0  0  0  0  0  0
  -10.6313    0.7278    0.0000 N   0  0  0  0  0  0  0  0  0  0  0  0
  -11.2725   -0.4794    0.0000 C   0  0  0  0  0  0  0  0  0  0  0  0
  -13.3995   -0.4535    0.0000 C   0  0  0  0  0  0  0  0  0  0  0  0
  -14.3494    0.7073    0.0000 C   0  0  0  0  0  0  0  0  0  0  0  0
  -13.9687    2.1582    0.0000 C   0  0  0  0  0  0  0  0  0  0  0  0
  -15.2309    2.9687    0.0000 N   0  0  0  0  0  0  0  0  0  0  0  0
  -16.3917    2.0187    0.0000 C   0  0  0  0  0  0  0  0  0  0  0  0
  -17.8744    2.2457    0.0000 C   0  0  0  0  0  0  0  0  0  0  0  0
  -18.8124    1.0752    0.0000 C   0  0  0  0  0  0  0  0  0  0  0  0
  -18.2676   -0.3224    0.0000 C   0  0  0  0  0  0  0  0  0  0  0  0
  -16.7849   -0.5494    0.0000 C   0  0  0  0  0  0  0  0  0  0  0  0
  -15.8469    0.6211    0.0000 C   0  0  0  0  0  0  0  0  0  0  0  0
  -11.6738   -1.7861    0.0000 C   0  0  0  0  0  0  0  0  0  0  0  0
  -13.8546   -1.5245    0.0000 O   0  0  0  0  0  0  0  0  0  0  0  0
  -11.8204   -3.1451    0.0000 N   0  0  0  0  0  0  0  0  0  0  0  0
  -11.7072   -4.5073    0.0000 C   0  0  0  0  0  0  0  0  0  0  0  0
  -13.5105   -5.6355    0.0000 C   0  0  0  0  0  0  0  0  0  0  0  0
  -14.9373   -5.1725    0.0000 C   0  0  0  0  0  0  0  0  0  0  0  0
  -16.0516   -6.1766    0.0000 C   0  0  0  0  0  0  0  0  0  0  0  0
  -17.4784   -5.7137    0.0000 N   0  0  0  0  0  0  0  0  0  0  0  0
  -18.5927   -6.7178    0.0000 C   0  0  0  0  0  0  0  0  0  0  0  0
  -20.0195   -6.2548    0.0000 N   0  0  0  0  0  0  0  0  0  0  0  0
  -18.2803   -8.1849    0.0000 N   0  0  0  0  0  0  0  0  0  0  0  0
  -11.3383   -5.8235    0.0000 C   0  0  0  0  0  0  0  0  0  0  0  0
  -13.3143   -6.7825    0.0000 O   0  0  0  0  0  0  0  0  0  0  0  0
  -10.7269   -7.0461    0.0000 N   0  0  0  0  0  0  0  0  0  0  0  0
   -9.8953   -8.1309    0.0000 C   0  0  0  0  0  0  0  0  0  0  0  0
  -10.8023  -10.0549    0.0000 C   0  0  0  0  0  0  0  0  0  0  0  0
  -12.2529  -10.4368    0.0000 C   0  0  0  0  0  0  0  0  0  0  0  0
  -12.6475  -11.8839    0.0000 C   0  0  0  0  0  0  0  0  0  0  0  0
  -14.0980  -12.2658    0.0000 N   0  0  0  0  0  0  0  0  0  0  0  0
  -14.4926  -13.7130    0.0000 C   0  0  0  0  0  0  0  0  0  0  0  0
  -15.9432  -14.0949    0.0000 N   0  0  0  0  0  0  0  0  0  0  0  0
  -13.4366  -14.7783    0.0000 N   0  0  0  0  0  0  0  0  0  0  0  0
   -8.8733   -9.0387    0.0000 C   0  0  0  0  0  0  0  0  0  0  0  0
  -10.0172  -10.9138    0.0000 O   0  0  0  0  0  0  0  0  0  0  0  0
   -7.6980   -9.7367    0.0000 N   0  0  0  0  0  0  0  0  0  0  0  0
   -6.4119  -10.1996    0.0000 C   0  0  0  0  0  0  0  0  0  0  0  0
   -5.0614  -10.4108    0.0000 C   0  0  0  0  0  0  0  0  0  0  0  0
   -3.6953  -10.3625    0.0000 C   0  0  0  0  0  0  0  0  0  0  0  0
   -2.3630  -10.0566    0.0000 C   0  0  0  0  0  0  0  0  0  0  0  0
   -1.1127   -9.5042    0.0000 C   0  0  0  0  0  0  0  0  0  0  0  0
    0.0104   -8.7250    0.0000 C   0  0  0  0  0  0  0  0  0  0  0  0
    0.9658   -7.7474    0.0000 C   0  0  0  0  0  0  0  0  0  0  0  0
    1.7189   -6.6067    0.0000 C   0  0  0  0  0  0  0  0  0  0  0  0
   -7.6672  -11.9168    0.0000 C   0  0  0  0  0  0  0  0  0  0  0  0
   -6.1348  -12.3086    0.0000 C   0  0  0  0  0  0  0  0  0  0  0  0
   -7.0063  -13.5294    0.0000 O   0  0  0  0  0  0  0  0  0  0  0  0
   -4.7927  -12.9785    0.0000 O   0  0  0  0  0  0  0  0  0  0  0  0
   18.1179   -4.1959    0.0000 H   0  0  0  0  0  0  0  0  0  0  0  0
   14.2402   -6.4645    0.0000 H   0  0  0  0  0  0  0  0  0  0  0  0
   14.1353   -9.4626    0.0000 H   0  0  0  0  0  0  0  0  0  0  0  0
   19.2234   -6.3466    0.0000 H   0  0  0  0  0  0  0  0  0  0  0  0
   24.0179  -11.6689    0.0000 H   0  0  0  0  0  0  0  0  0  0  0  0
   20.0372  -15.0087    0.0000 H   0  0  0  0  0  0  0  0  0  0  0  0
   18.1090  -12.7104    0.0000 H   0  0  0  0  0  0  0  0  0  0  0  0
   22.4785  -15.8974    0.0000 H   0  0  0  0  0  0  0  0  0  0  0  0
   17.2070   -7.5931    0.0000 H   0  0  0  0  0  0  0  0  0  0  0  0
   18.3805   -4.6652    0.0000 H   0  0  0  0  0  0  0  0  0  0  0  0
   23.1159   -6.5516    0.0000 H   0  0  0  0  0  0  0  0  0  0  0  0
   22.6649   -3.9930    0.0000 H   0  0  0  0  0  0  0  0  0  0  0  0
   16.9940   -2.0581    0.0000 H   0  0  0  0  0  0  0  0  0  0  0  0
   13.8355   -3.3580    0.0000 H   0  0  0  0  0  0  0  0  0  0  0  0
   12.9303   -1.6552    0.0000 H   0  0  0  0  0  0  0  0  0  0  0  0
   15.9172   -0.7801    0.0000 H   0  0  0  0  0  0  0  0  0  0  0  0
   15.0120    0.9226    0.0000 H   0  0  0  0  0  0  0  0  0  0  0  0
   14.6308    2.3633    0.0000 H   0  0  0  0  0  0  0  0  0  0  0  0
   13.2554    1.2016    0.0000 H   0  0  0  0  0  0  0  0  0  0  0  0
   12.5925   -0.1113    0.0000 H   0  0  0  0  0  0  0  0  0  0  0  0
   12.4435   -0.9441    0.0000 H   0  0  0  0  0  0  0  0  0  0  0  0
   11.8924   -1.5161    0.0000 H   0  0  0  0  0  0  0  0  0  0  0  0
   11.4851   -1.9684    0.0000 H   0  0  0  0  0  0  0  0  0  0  0  0
   10.2941   -2.8313    0.0000 H   0  0  0  0  0  0  0  0  0  0  0  0
    9.4036   -3.4984    0.0000 H   0  0  0  0  0  0  0  0  0  0  0  0
   14.6220    2.9579    0.0000 H   0  0  0  0  0  0  0  0  0  0  0  0
   14.0940    4.6624    0.0000 H   0  0  0  0  0  0  0  0  0  0  0  0
   12.4628    4.7562    0.0000 H   0  0  0  0  0  0  0  0  0  0  0  0
   12.2685    6.3056    0.0000 H   0  0  0  0  0  0  0  0  0  0  0  0
   11.4702    6.8492    0.0000 H   0  0  0  0  0  0  0  0  0  0  0  0
    9.5671    9.4105    0.0000 H   0  0  0  0  0  0  0  0  0  0  0  0
    8.6504    8.2522    0.0000 H   0  0  0  0  0  0  0  0  0  0  0  0
   12.9844    8.7927    0.0000 H   0  0  0  0  0  0  0  0  0  0  0  0
   12.0557    7.2689    0.0000 H   0  0  0  0  0  0  0  0  0  0  0  0
   11.2257   11.6009    0.0000 H   0  0  0  0  0  0  0  0  0  0  0  0
   10.1183   10.2017    0.0000 H   0  0  0  0  0  0  0  0  0  0  0  0
   14.2062    9.9328    0.0000 H   0  0  0  0  0  0  0  0  0  0  0  0
   14.5875   14.4166    0.0000 H   0  0  0  0  0  0  0  0  0  0  0  0
   15.6912   12.0646    0.0000 H   0  0  0  0  0  0  0  0  0  0  0  0
   11.9988   14.6368    0.0000 H   0  0  0  0  0  0  0  0  0  0  0  0
   10.5138   12.5049    0.0000 H   0  0  0  0  0  0  0  0  0  0  0  0
    7.3179    9.0663    0.0000 H   0  0  0  0  0  0  0  0  0  0  0  0
    6.3952    8.7812    0.0000 H   0  0  0  0  0  0  0  0  0  0  0  0
    3.2061    8.8902    0.0000 H   0  0  0  0  0  0  0  0  0  0  0  0
    3.5401    7.4513    0.0000 H   0  0  0  0  0  0  0  0  0  0  0  0
    5.8197   11.1767    0.0000 H   0  0  0  0  0  0  0  0  0  0  0  0
    6.4320    9.5006    0.0000 H   0  0  0  0  0  0  0  0  0  0  0  0
    2.5277   11.5526    0.0000 H   0  0  0  0  0  0  0  0  0  0  0  0
    2.9312    9.8144    0.0000 H   0  0  0  0  0  0  0  0  0  0  0  0
    5.6902   12.8428    0.0000 H   0  0  0  0  0  0  0  0  0  0  0  0
    2.4223   15.9366    0.0000 H   0  0  0  0  0  0  0  0  0  0  0  0
    4.9493   15.3330    0.0000 H   0  0  0  0  0  0  0  0  0  0  0  0
    0.6362   14.0499    0.0000 H   0  0  0  0  0  0  0  0  0  0  0  0
    1.3770   11.5597    0.0000 H   0  0  0  0  0  0  0  0  0  0  0  0
    2.0728    6.9171    0.0000 H   0  0  0  0  0  0  0  0  0  0  0  0
    1.7204    6.0179    0.0000 H   0  0  0  0  0  0  0  0  0  0  0  0
   -0.5248    3.9154    0.0000 H   0  0  0  0  0  0  0  0  0  0  0  0
    0.7969    2.9549    0.0000 H   0  0  0  0  0  0  0  0  0  0  0  0
   -0.1523    7.1313    0.0000 H   0  0  0  0  0  0  0  0  0  0  0  0
    1.1809    6.4953    0.0000 H   0  0  0  0  0  0  0  0  0  0  0  0
   -2.9337    4.8888    0.0000 H   0  0  0  0  0  0  0  0  0  0  0  0
   -1.6120    3.9283    0.0000 H   0  0  0  0  0  0  0  0  0  0  0  0
   -2.4305    8.1081    0.0000 H   0  0  0  0  0  0  0  0  0  0  0  0
   -6.3509    7.3731    0.0000 H   0  0  0  0  0  0  0  0  0  0  0  0
   -4.1497    8.9128    0.0000 H   0  0  0  0  0  0  0  0  0  0  0  0
   -6.0278    4.9452    0.0000 H   0  0  0  0  0  0  0  0  0  0  0  0
   -3.9465    3.5664    0.0000 H   0  0  0  0  0  0  0  0  0  0  0  0
    0.4829    1.4763    0.0000 H   0  0  0  0  0  0  0  0  0  0  0  0
    3.1214   -2.4219    0.0000 H   0  0  0  0  0  0  0  0  0  0  0  0
    1.8162   -1.2138    0.0000 H   0  0  0  0  0  0  0  0  0  0  0  0
    4.7548   -3.3229    0.0000 H   0  0  0  0  0  0  0  0  0  0  0  0
    3.4919   -2.9811    0.0000 H   0  0  0  0  0  0  0  0  0  0  0  0
    6.4142   -3.7779    0.0000 H   0  0  0  0  0  0  0  0  0  0  0  0
    5.2736   -3.7480    0.0000 H   0  0  0  0  0  0  0  0  0  0  0  0
    7.5119   -3.9599    0.0000 H   0  0  0  0  0  0  0  0  0  0  0  0
    3.9802    0.0015    0.0000 H   0  0  0  0  0  0  0  0  0  0  0  0
    4.3455   -1.6940    0.0000 H   0  0  0  0  0  0  0  0  0  0  0  0
    4.6771   -2.1778    0.0000 H   0  0  0  0  0  0  0  0  0  0  0  0
    4.4746   -3.4206    0.0000 H   0  0  0  0  0  0  0  0  0  0  0  0
    4.7087   -3.9585    0.0000 H   0  0  0  0  0  0  0  0  0  0  0  0
    4.3960   -5.0032    0.0000 H   0  0  0  0  0  0  0  0  0  0  0  0
    4.3456   -5.9897    0.0000 H   0  0  0  0  0  0  0  0  0  0  0  0
    1.4610    3.8998    0.0000 H   0  0  0  0  0  0  0  0  0  0  0  0
    0.5217    4.5439    0.0000 H   0  0  0  0  0  0  0  0  0  0  0  0
   -0.1457    6.4693    0.0000 H   0  0  0  0  0  0  0  0  0  0  0  0
    0.8115    4.6394    0.0000 H   0  0  0  0  0  0  0  0  0  0  0  0
   -3.4438    5.8240    0.0000 H   0  0  0  0  0  0  0  0  0  0  0  0
   -2.9066    4.6238    0.0000 H   0  0  0  0  0  0  0  0  0  0  0  0
   -1.3188    8.6239    0.0000 H   0  0  0  0  0  0  0  0  0  0  0  0
   -0.4797    7.4082    0.0000 H   0  0  0  0  0  0  0  0  0  0  0  0
   -4.7638    7.7358    0.0000 H   0  0  0  0  0  0  0  0  0  0  0  0
   -4.6587   11.7231    0.0000 H   0  0  0  0  0  0  0  0  0  0  0  0
   -6.1285    9.8427    0.0000 H   0  0  0  0  0  0  0  0  0  0  0  0
   -2.0611   11.7736    0.0000 H   0  0  0  0  0  0  0  0  0  0  0  0
   -0.7186    9.5492    0.0000 H   0  0  0  0  0  0  0  0  0  0  0  0
   -3.1803    6.0438    0.0000 H   0  0  0  0  0  0  0  0  0  0  0  0
   -4.5011    6.0950    0.0000 H   0  0  0  0  0  0  0  0  0  0  0  0
   -7.0545    6.6283    0.0000 H   0  0  0  0  0  0  0  0  0  0  0  0
   -7.1271    5.3153    0.0000 H   0  0  0  0  0  0  0  0  0  0  0  0
   -4.4457    8.6016    0.0000 H   0  0  0  0  0  0  0  0  0  0  0  0
   -3.9892    6.2177    0.0000 H   0  0  0  0  0  0  0  0  0  0  0  0
   -7.1297    9.3748    0.0000 H   0  0  0  0  0  0  0  0  0  0  0  0
   -7.2198    7.7434    0.0000 H   0  0  0  0  0  0  0  0  0  0  0  0
   -3.8295   10.2957    0.0000 H   0  0  0  0  0  0  0  0  0  0  0  0
   -6.2667   13.6742    0.0000 H   0  0  0  0  0  0  0  0  0  0  0  0
   -3.9347   12.5288    0.0000 H   0  0  0  0  0  0  0  0  0  0  0  0
   -8.4246   12.2274    0.0000 H   0  0  0  0  0  0  0  0  0  0  0  0
   -8.2506    9.6351    0.0000 H   0  0  0  0  0  0  0  0  0  0  0  0
   -8.2545    5.4190    0.0000 H   0  0  0  0  0  0  0  0  0  0  0  0
   -9.0217    4.7455    0.0000 H   0  0  0  0  0  0  0  0  0  0  0  0
  -12.0018    3.9356    0.0000 H   0  0  0  0  0  0  0  0  0  0  0  0
  -11.1956    2.5145    0.0000 H   0  0  0  0  0  0  0  0  0  0  0  0
  -10.3276    6.7949    0.0000 H   0  0  0  0  0  0  0  0  0  0  0  0
   -9.2015    5.6111    0.0000 H   0  0  0  0  0  0  0  0  0  0  0  0
  -13.5496    6.0223    0.0000 H   0  0  0  0  0  0  0  0  0  0  0  0
  -12.5760    4.5268    0.0000 H   0  0  0  0  0  0  0  0  0  0  0  0
  -11.0191    8.3163    0.0000 H   0  0  0  0  0  0  0  0  0  0  0  0
  -15.1480   10.1058    0.0000 H   0  0  0  0  0  0  0  0  0  0  0  0
  -12.5670   10.4029    0.0000 H   0  0  0  0  0  0  0  0  0  0  0  0
  -16.1812    7.7220    0.0000 H   0  0  0  0  0  0  0  0  0  0  0  0
  -14.6333    5.6353    0.0000 H   0  0  0  0  0  0  0  0  0  0  0  0
  -12.3572    2.0863    0.0000 H   0  0  0  0  0  0  0  0  0  0  0  0
  -12.7936    1.0075    0.0000 H   0  0  0  0  0  0  0  0  0  0  0  0
  -14.7873   -1.0225    0.0000 H   0  0  0  0  0  0  0  0  0  0  0  0
  -13.2611   -1.9471    0.0000 H   0  0  0  0  0  0  0  0  0  0  0  0
  -12.6479    2.8693    0.0000 H   0  0  0  0  0  0  0  0  0  0  0  0
  -15.3171    4.4662    0.0000 H   0  0  0  0  0  0  0  0  0  0  0  0
  -18.4192    3.6433    0.0000 H   0  0  0  0  0  0  0  0  0  0  0  0
  -20.2951    1.3022    0.0000 H   0  0  0  0  0  0  0  0  0  0  0  0
  -19.2056   -1.4930    0.0000 H   0  0  0  0  0  0  0  0  0  0  0  0
  -16.2402   -1.9470    0.0000 H   0  0  0  0  0  0  0  0  0  0  0  0
  -14.0068   -2.9354    0.0000 H   0  0  0  0  0  0  0  0  0  0  0  0
  -13.7130   -3.9130    0.0000 H   0  0  0  0  0  0  0  0  0  0  0  0
  -14.2142   -6.9602    0.0000 H   0  0  0  0  0  0  0  0  0  0  0  0
  -12.5866   -6.8172    0.0000 H   0  0  0  0  0  0  0  0  0  0  0  0
  -16.1196   -4.2495    0.0000 H   0  0  0  0  0  0  0  0  0  0  0  0
  -14.5750   -3.7169    0.0000 H   0  0  0  0  0  0  0  0  0  0  0  0
  -16.7553   -7.5013    0.0000 H   0  0  0  0  0  0  0  0  0  0  0  0
  -14.9906   -7.2369    0.0000 H   0  0  0  0  0  0  0  0  0  0  0  0
  -17.7908   -4.2466    0.0000 H   0  0  0  0  0  0  0  0  0  0  0  0
  -21.1338   -7.2589    0.0000 H   0  0  0  0  0  0  0  0  0  0  0  0
  -20.3319   -4.7877    0.0000 H   0  0  0  0  0  0  0  0  0  0  0  0
  -19.3946   -9.1890    0.0000 H   0  0  0  0  0  0  0  0  0  0  0  0
  -16.8535   -8.6479    0.0000 H   0  0  0  0  0  0  0  0  0  0  0  0
  -12.6797   -8.0517    0.0000 H   0  0  0  0  0  0  0  0  0  0  0  0
  -11.9039   -8.7152    0.0000 H   0  0  0  0  0  0  0  0  0  0  0  0
  -10.6781  -11.5497    0.0000 H   0  0  0  0  0  0  0  0  0  0  0  0
   -9.3862  -10.5495    0.0000 H   0  0  0  0  0  0  0  0  0  0  0  0
  -13.7466  -10.2995    0.0000 H   0  0  0  0  0  0  0  0  0  0  0  0
  -12.7351   -9.0164    0.0000 H   0  0  0  0  0  0  0  0  0  0  0  0
  -12.5233  -13.3788    0.0000 H   0  0  0  0  0  0  0  0  0  0  0  0
  -11.1816  -12.2023    0.0000 H   0  0  0  0  0  0  0  0  0  0  0  0
  -15.1541  -11.2005    0.0000 H   0  0  0  0  0  0  0  0  0  0  0  0
  -16.3377  -15.5421    0.0000 H   0  0  0  0  0  0  0  0  0  0  0  0
  -16.9992  -13.0296    0.0000 H   0  0  0  0  0  0  0  0  0  0  0  0
  -13.8311  -16.2255    0.0000 H   0  0  0  0  0  0  0  0  0  0  0  0
  -11.9860  -14.3964    0.0000 H   0  0  0  0  0  0  0  0  0  0  0  0
   -8.7971  -11.6384    0.0000 H   0  0  0  0  0  0  0  0  0  0  0  0
   -4.3902  -12.4292    0.0000 H   0  0  0  0  0  0  0  0  0  0  0  0
   -5.6469  -12.5076    0.0000 H   0  0  0  0  0  0  0  0  0  0  0  0
   -2.8028  -12.3246    0.0000 H   0  0  0  0  0  0  0  0  0  0  0  0
   -3.8734  -12.5322    0.0000 H   0  0  0  0  0  0  0  0  0  0  0  0
   -1.1154  -11.8143    0.0000 H   0  0  0  0  0  0  0  0  0  0  0  0
   -2.3102  -12.2115    0.0000 H   0  0  0  0  0  0  0  0  0  0  0  0
    0.4450  -10.9939    0.0000 H   0  0  0  0  0  0  0  0  0  0  0  0
   -0.6531  -11.6100    0.0000 H   0  0  0  0  0  0  0  0  0  0  0  0
    1.8219   -9.8931    0.0000 H   0  0  0  0  0  0  0  0  0  0  0  0
    0.8603  -10.7059    0.0000 H   0  0  0  0  0  0  0  0  0  0  0  0
    2.9992   -8.3715    0.0000 H   0  0  0  0  0  0  0  0  0  0  0  0
    2.1752   -9.5316    0.0000 H   0  0  0  0  0  0  0  0  0  0  0  0
    3.6618   -7.6388    0.0000 H   0  0  0  0  0  0  0  0  0  0  0  0
   -7.4885  -13.4061    0.0000 H   0  0  0  0  0  0  0  0  0  0  0  0
   -8.9550  -12.6858    0.0000 H   0  0  0  0  0  0  0  0  0  0  0  0
   -8.7791  -10.9100    0.0000 H   0  0  0  0  0  0  0  0  0  0  0  0
  1  2  1  0
  2  3  1  0
  3  4  2  0
  4  5  1  0
  5  6  2  0
  6  7  1  0
  7  8  2  0
  7  9  1  0
  9 10  1  0
 10 11  1  0
 11 12  2  0
  9 13  1  0
 13 14  1  0
 14 15  2  0
 15 16  1  0
 16 17  2  0
 17 18  1  0
 16 19  1  0
 14 20  1  0
 20 21  1  0
 21 22  2  0
 22 23  1  0
 23 24  2  0
 24 25  1  0
 25 26  2  0
 25 27  1  0
  1 28  2  0
  1 29  1  0
 29 30  1  0
 30 31  1  0
 31 32  1  0
 32 33  2  0
 32 34  1  0
 35 34  1  1
 35 36  1  0
 36 37  1  0
 37 38  1  0
 38 39  1  0
 35 40  1  0
 35 41  1  0
 41 42  2  0
 41 43  1  0
 43 44  1  0
 44 45  1  0
 45 46  1  0
 46 47  1  0
 47 48  1  0
 48 49  1  0
 49 50  2  3
 49 51  1  0
 44 52  1  0
 52 53  2  0
 52 54  1  0
 54 55  1  0
 55 56  1  0
 56 57  1  0
 57 58  1  0
 58 59  1  0
 59 60  1  0
 60 61  2  3
 60 62  1  0
 55 63  1  0
 63 64  2  0
 63 65  1  0
 65 66  1  0
 66 67  1  0
 67 68  1  0
 68 69  1  0
 69 70  1  0
 70 71  1  0
 71 72  2  3
 71 73  1  0
 66 74  1  0
 74 75  2  0
 74 76  1  0
 76 77  1  0
 77 78  1  0
 78 79  1  0
 79 80  1  0
 80 81  1  0
 77 82  1  0
 82 83  1  0
 83 84  1  0
 84 85  1  0
 77 86  1  0
 86 87  2  0
 86 88  1  0
 88 89  1  0
 89 90  1  0
 90 91  1  0
 91 92  1  0
 92 93  1  0
 93 94  1  0
 94 95  2  3
 94 96  1  0
 89 97  1  0
 97 98  2  0
 97 99  1  0
 99100  1  0
100101  1  0
101102  1  0
102103  1  0
103104  1  0
104105  1  0
105106  2  3
105107  1  0
100108  1  0
108109  2  0
108110  1  0
110111  1  0
111112  1  0
112113  1  0
113114  1  0
114115  1  0
115116  1  0
116117  2  3
116118  1  0
111119  1  0
119120  2  0
119121  1  0
121122  1  0
122123  1  0
123124  1  0
124125  2  0
125126  1  0
126127  1  0
127128  2  0
128129  1  0
129130  2  0
130131  1  0
131132  2  0
122133  1  0
133134  2  0
133135  1  0
135136  1  0
136137  1  0
137138  1  0
138139  1  0
139140  1  0
140141  1  0
141142  2  3
141143  1  0
136144  1  0
144145  2  0
144146  1  0
146147  1  0
147148  1  0
148149  1  0
149150  1  0
150151  1  0
151152  1  0
152153  2  3
152154  1  0
147155  1  0
155156  2  0
155157  1  0
157158  1  0
158159  1  0
159160  1  0
160161  1  0
161162  1  0
162163  1  0
163164  1  0
164165  1  0
158166  1  0
158167  1  1
167168  2  0
167169  1  0
  8  3  1  0
132124  1  0
 11  6  1  0
132127  1  0
 18 13  2  0
 39 81  2  0
 22  9  1  0
 85165  2  0
 26 21  1  0
  2170  1  0
  4171  1  0
  5172  1  0
  8173  1  0
 15174  1  0
 17175  1  0
 18176  1  0
 19177  1  0
 23178  1  0
 24179  1  0
 26180  1  0
 27181  1  0
 29182  1  0
 30183  1  0
 30184  1  0
 31185  1  0
 31186  1  0
 34187  1  0
 36188  1  0
 36189  1  0
 37190  1  0
 37191  1  0
 38192  1  0
 38193  1  0
 39194  1  0
 40195  1  0
 40196  1  0
 40197  1  0
 43198  1  0
 44199  1  6
 45200  1  0
 45201  1  0
 46202  1  0
 46203  1  0
 47204  1  0
 47205  1  0
 48206  1  0
 50207  1  0
 50208  1  0
 51209  1  0
 51210  1  0
 54211  1  0
 55212  1  6
 56213  1  0
 56214  1  0
 57215  1  0
 57216  1  0
 58217  1  0
 58218  1  0
 59219  1  0
 61220  1  0
 61221  1  0
 62222  1  0
 62223  1  0
 65224  1  0
 66225  1  6
 67226  1  0
 67227  1  0
 68228  1  0
 68229  1  0
 69230  1  0
 69231  1  0
 70232  1  0
 72233  1  0
 72234  1  0
 73235  1  0
 73236  1  0
 76237  1  0
 78238  1  0
 78239  1  0
 79240  1  0
 79241  1  0
 80242  1  0
 80243  1  0
 81244  1  0
 82245  1  0
 82246  1  0
 83247  1  0
 83248  1  0
 84249  1  0
 84250  1  0
 85251  1  0
 88252  1  0
 89253  1  6
 90254  1  0
 90255  1  0
 91256  1  0
 91257  1  0
 92258  1  0
 92259  1  0
 93260  1  0
 95261  1  0
 95262  1  0
 96263  1  0
 96264  1  0
 99265  1  0
100266  1  6
101267  1  0
101268  1  0
102269  1  0
102270  1  0
103271  1  0
103272  1  0
104273  1  0
106274  1  0
106275  1  0
107276  1  0
107277  1  0
110278  1  0
111279  1  6
112280  1  0
112281  1  0
113282  1  0
113283  1  0
114284  1  0
114285  1  0
115286  1  0
117287  1  0
117288  1  0
118289  1  0
118290  1  0
121291  1  0
122292  1  6
123293  1  0
123294  1  0
125295  1  0
126296  1  0
128297  1  0
129298  1  0
130299  1  0
131300  1  0
135301  1  0
136302  1  6
137303  1  0
137304  1  0
138305  1  0
138306  1  0
139307  1  0
139308  1  0
140309  1  0
142310  1  0
142311  1  0
143312  1  0
143313  1  0
146314  1  0
147315  1  6
148316  1  0
148317  1  0
149318  1  0
149319  1  0
150320  1  0
150321  1  0
151322  1  0
153323  1  0
153324  1  0
154325  1  0
154326  1  0
157327  1  0
159328  1  0
159329  1  0
160330  1  0
160331  1  0
161332  1  0
161333  1  0
162334  1  0
162335  1  0
163336  1  0
163337  1  0
164338  1  0
164339  1  0
165340  1  0
166341  1  0
166342  1  0
166343  1  0
M  CHG  8  50   1  61   1  72   1  95   1 106   1 117   1 142   1 153   1
M  CHG  1 169  -1
M  END
