
     RDKit          2D

340346  0  0  0  0  0  0  0  0999 V2000
   30.8356   -2.0321    0.0000 C   0  0  0  0  0  0  0  0  0  0  0  0
   32.1615   -1.3308    0.0000 N   0  0  0  0  0  0  0  0  0  0  0  0
   33.4319   -2.1285    0.0000 C   0  0  0  0  0  0  0  0  0  0  0  0
   33.3763   -3.6274    0.0000 C   0  0  0  0  0  0  0  0  0  0  0  0
   34.6466   -4.4251    0.0000 C   0  0  0  0  0  0  0  0  0  0  0  0
   35.9726   -3.7238    0.0000 C   0  0  0  0  0  0  0  0  0  0  0  0
   36.0282   -2.2248    0.0000 C   0  0  0  0  0  0  0  0  0  0  0  0
   34.7578   -1.4271    0.0000 C   0  0  0  0  0  0  0  0  0  0  0  0
   37.4710   -1.8145    0.0000 C   0  0  0  0  0  0  0  0  0  0  0  0
   38.3070   -3.0599    0.0000 O   0  0  0  0  0  0  0  0  0  0  0  0
   37.3810   -4.2399    0.0000 C   0  0  0  0  0  0  0  0  0  0  0  0
   37.7913   -5.6827    0.0000 O   0  0  0  0  0  0  0  0  0  0  0  0
   38.9487   -1.5572    0.0000 C   0  0  0  0  0  0  0  0  0  0  0  0
   39.4648   -0.1488    0.0000 C   0  0  0  0  0  0  0  0  0  0  0  0
   40.9426    0.1085    0.0000 C   0  0  0  0  0  0  0  0  0  0  0  0
   41.9043   -1.0427    0.0000 C   0  0  0  0  0  0  0  0  0  0  0  0
   41.3882   -2.4511    0.0000 C   0  0  0  0  0  0  0  0  0  0  0  0
   39.9104   -2.7084    0.0000 C   0  0  0  0  0  0  0  0  0  0  0  0
   43.3821   -0.7855    0.0000 O   0  0  0  0  0  0  0  0  0  0  0  0
   38.5032    1.0024    0.0000 O   0  0  0  0  0  0  0  0  0  0  0  0
   37.0254    0.7451    0.0000 C   0  0  0  0  0  0  0  0  0  0  0  0
   36.5093   -0.6633    0.0000 C   0  0  0  0  0  0  0  0  0  0  0  0
   35.2724   -0.2633    0.0000 C   0  0  0  0  0  0  0  0  0  0  0  0
   34.7595    0.3506    0.0000 C   0  0  0  0  0  0  0  0  0  0  0  0
   35.0347    1.1018    0.0000 C   0  0  0  0  0  0  0  0  0  0  0  0
   35.8229    1.2390    0.0000 C   0  0  0  0  0  0  0  0  0  0  0  0
   33.6242    2.7902    0.0000 O   0  0  0  0  0  0  0  0  0  0  0  0
   30.7800   -3.5311    0.0000 S   0  0  0  0  0  0  0  0  0  0  0  0
   29.5653   -1.2345    0.0000 N   0  0  0  0  0  0  0  0  0  0  0  0
   28.2393   -1.9358    0.0000 C   0  0  0  0  0  0  0  0  0  0  0  0
   26.9690   -1.1382    0.0000 C   0  0  0  0  0  0  0  0  0  0  0  0
   25.6430   -1.8395    0.0000 O   0  0  0  0  0  0  0  0  0  0  0  0
   24.3727   -1.0419    0.0000 C   0  0  0  0  0  0  0  0  0  0  0  0
   23.0467   -1.7432    0.0000 C   0  0  0  0  0  0  0  0  0  0  0  0
   21.7764   -0.9455    0.0000 O   0  0  0  0  0  0  0  0  0  0  0  0
   20.4504   -1.6469    0.0000 C   0  0  0  0  0  0  0  0  0  0  0  0
   19.1801   -0.8492    0.0000 C   0  0  0  0  0  0  0  0  0  0  0  0
   17.8541   -1.5505    0.0000 N   0  0  0  0  0  0  0  0  0  0  0  0
   16.5838   -0.7529    0.0000 C   0  0  0  0  0  0  0  0  0  0  0  0
   16.6394    0.7461    0.0000 O   0  0  0  0  0  0  0  0  0  0  0  0
   15.2579   -1.4542    0.0000 C   0  0  0  0  0  0  0  0  0  0  0  0
   13.9875   -0.6566    0.0000 C   0  0  0  0  0  0  0  0  0  0  0  0
   12.6616   -1.3579    0.0000 C   0  0  0  0  0  0  0  0  0  0  0  0
   12.8256   -2.1380    0.0000 O   0  0  0  0  0  0  0  0  0  0  0  0
   11.3912   -0.5602    0.0000 N   0  0  0  0  0  0  0  0  0  0  0  0
   10.0653   -1.2616    0.0000 C   0  0  0  0  0  0  0  0  0  0  0  0
   10.9862   -2.4456    0.0000 C   0  0  0  0  0  0  0  0  0  0  0  0
   12.4720   -2.2401    0.0000 C   0  0  0  0  0  0  0  0  0  0  0  0
   11.4466   -3.8732    0.0000 C   0  0  0  0  0  0  0  0  0  0  0  0
   12.9131   -4.1882    0.0000 C   0  0  0  0  0  0  0  0  0  0  0  0
    8.5794   -1.4671    0.0000 C   0  0  0  0  0  0  0  0  0  0  0  0
    8.3675   -2.9520    0.0000 O   0  0  0  0  0  0  0  0  0  0  0  0
    7.6585   -0.2831    0.0000 N   0  0  0  0  0  0  0  0  0  0  0  0
    6.1726   -0.4886    0.0000 C   0  0  0  0  0  0  0  0  0  0  0  0
    6.6331   -1.9162    0.0000 C   0  0  0  0  0  0  0  0  0  0  0  0
    8.0996   -2.2312    0.0000 C   0  0  0  0  0  0  0  0  0  0  0  0
    8.5600   -3.6588    0.0000 C   0  0  0  0  0  0  0  0  0  0  0  0
    9.5855   -2.0257    0.0000 C   0  0  0  0  0  0  0  0  0  0  0  0
    4.7061   -0.1735    0.0000 C   0  0  0  0  0  0  0  0  0  0  0  0
    3.9991   -1.4965    0.0000 O   0  0  0  0  0  0  0  0  0  0  0  0
    4.2457    1.2541    0.0000 N   0  0  0  0  0  0  0  0  0  0  0  0
    2.7792    1.5691    0.0000 C   0  0  0  0  0  0  0  0  0  0  0  0
    2.7235    0.0702    0.0000 C   0  0  0  0  0  0  0  0  0  0  0  0
    3.9939   -0.7275    0.0000 C   0  0  0  0  0  0  0  0  0  0  0  0
    3.9383   -2.2265    0.0000 C   0  0  0  0  0  0  0  0  0  0  0  0
    5.2086   -3.0241    0.0000 N   0  0  0  0  0  0  0  0  0  0  0  0
    5.1530   -4.5231    0.0000 C   0  0  0  0  0  0  0  0  0  0  0  0
    6.4233   -5.3207    0.0000 N   0  0  0  0  0  0  0  0  0  0  0  0
    3.8270   -5.2244    0.0000 N   0  0  0  0  0  0  0  0  0  0  0  0
    1.5088    2.3668    0.0000 C   0  0  0  0  0  0  0  0  0  0  0  0
    0.3920    1.3654    0.0000 O   0  0  0  0  0  0  0  0  0  0  0  0
    1.5644    3.8657    0.0000 N   0  0  0  0  0  0  0  0  0  0  0  0
    0.2941    4.6634    0.0000 C   0  0  0  0  0  0  0  0  0  0  0  0
    0.1435    3.1710    0.0000 C   0  0  0  0  0  0  0  0  0  0  0  0
   -0.2868    1.7340    0.0000 C   0  0  0  0  0  0  0  0  0  0  0  0
   -0.9812    0.4044    0.0000 C   0  0  0  0  0  0  0  0  0  0  0  0
   -1.9148   -0.7697    0.0000 C   0  0  0  0  0  0  0  0  0  0  0  0
   -3.0536   -1.7459    0.0000 C   0  0  0  0  0  0  0  0  0  0  0  0
   -4.3567   -2.4889    0.0000 C   0  0  0  0  0  0  0  0  0  0  0  0
   -5.7768   -2.9719    0.0000 C   0  0  0  0  0  0  0  0  0  0  0  0
    1.5729    5.4474    0.0000 C   0  0  0  0  0  0  0  0  0  0  0  0
    0.1595    6.1573    0.0000 C   0  0  0  0  0  0  0  0  0  0  0  0
    1.5892    6.6110    0.0000 O   0  0  0  0  0  0  0  0  0  0  0  0
   -0.2554    7.5988    0.0000 N   0  0  0  0  0  0  0  0  0  0  0  0
   -0.9356    8.9357    0.0000 C   0  0  0  0  0  0  0  0  0  0  0  0
   -0.2837   10.2866    0.0000 C   0  0  0  0  0  0  0  0  0  0  0  0
   -1.8565   10.1197    0.0000 C   0  0  0  0  0  0  0  0  0  0  0  0
   -0.8990   11.2744    0.0000 O   0  0  0  0  0  0  0  0  0  0  0  0
   -2.9849   11.1081    0.0000 N   0  0  0  0  0  0  0  0  0  0  0  0
   -4.2799   11.8650    0.0000 C   0  0  0  0  0  0  0  0  0  0  0  0
   -4.4618   13.3540    0.0000 C   0  0  0  0  0  0  0  0  0  0  0  0
   -3.2633   14.2560    0.0000 C   0  0  0  0  0  0  0  0  0  0  0  0
   -5.6947   12.3632    0.0000 C   0  0  0  0  0  0  0  0  0  0  0  0
   -5.5135   13.8522    0.0000 O   0  0  0  0  0  0  0  0  0  0  0  0
   -7.1783   12.5846    0.0000 N   0  0  0  0  0  0  0  0  0  0  0  0
   -8.6770   12.5213    0.0000 C   0  0  0  0  0  0  0  0  0  0  0  0
   -9.6350   13.6755    0.0000 C   0  0  0  0  0  0  0  0  0  0  0  0
   -9.1144   15.0822    0.0000 O   0  0  0  0  0  0  0  0  0  0  0  0
  -10.1365   12.1754    0.0000 C   0  0  0  0  0  0  0  0  0  0  0  0
  -10.7891   13.5261    0.0000 O   0  0  0  0  0  0  0  0  0  0  0  0
  -11.5043   11.5596    0.0000 N   0  0  0  0  0  0  0  0  0  0  0  0
  -12.7308   10.6961    0.0000 C   0  0  0  0  0  0  0  0  0  0  0  0
  -14.1608   11.1491    0.0000 C   0  0  0  0  0  0  0  0  0  0  0  0
  -14.4834   12.6140    0.0000 C   0  0  0  0  0  0  0  0  0  0  0  0
  -15.8582   13.2140    0.0000 C   0  0  0  0  0  0  0  0  0  0  0  0
  -15.7123   14.7069    0.0000 N   0  0  0  0  0  0  0  0  0  0  0  0
  -14.2474   15.0296    0.0000 C   0  0  0  0  0  0  0  0  0  0  0  0
  -13.4879   13.7361    0.0000 N   0  0  0  0  0  0  0  0  0  0  0  0
  -13.7717    9.6160    0.0000 C   0  0  0  0  0  0  0  0  0  0  0  0
  -15.0509   10.3995    0.0000 O   0  0  0  0  0  0  0  0  0  0  0  0
  -14.5894    8.3585    0.0000 N   0  0  0  0  0  0  0  0  0  0  0  0
  -15.1544    6.9690    0.0000 C   0  0  0  0  0  0  0  0  0  0  0  0
  -16.6022    6.5770    0.0000 C   0  0  0  0  0  0  0  0  0  0  0  0
  -17.6656    7.6349    0.0000 C   0  0  0  0  0  0  0  0  0  0  0  0
  -19.1135    7.2429    0.0000 S   0  0  0  0  0  0  0  0  0  0  0  0
  -20.1769    8.3009    0.0000 C   0  0  0  0  0  0  0  0  0  0  0  0
  -15.4461    5.4976    0.0000 C   0  0  0  0  0  0  0  0  0  0  0  0
  -16.9458    5.4651    0.0000 O   0  0  0  0  0  0  0  0  0  0  0  0
  -15.4541    3.9976    0.0000 N   0  0  0  0  0  0  0  0  0  0  0  0
  -15.1781    2.5232    0.0000 C   0  0  0  0  0  0  0  0  0  0  0  0
  -16.1843    1.4107    0.0000 C   0  0  0  0  0  0  0  0  0  0  0  0
  -17.6508    1.7258    0.0000 C   0  0  0  0  0  0  0  0  0  0  0  0
  -18.6569    0.6132    0.0000 C   0  0  0  0  0  0  0  0  0  0  0  0
  -20.1235    0.9283    0.0000 C   0  0  0  0  0  0  0  0  0  0  0  0
  -21.1296   -0.1842    0.0000 N   0  0  0  0  0  0  0  0  0  0  0  0
  -14.6281    1.1277    0.0000 C   0  0  0  0  0  0  0  0  0  0  0  0
  -15.8721    0.2896    0.0000 O   0  0  0  0  0  0  0  0  0  0  0  0
  -13.8239   -0.1385    0.0000 N   0  0  0  0  0  0  0  0  0  0  0  0
  -12.7946   -1.2296    0.0000 C   0  0  0  0  0  0  0  0  0  0  0  0
  -11.5774   -2.1062    0.0000 C   0  0  0  0  0  0  0  0  0  0  0  0
  -10.2163   -2.7366    0.0000 C   0  0  0  0  0  0  0  0  0  0  0  0
   -8.7605   -3.0981    0.0000 C   0  0  0  0  0  0  0  0  0  0  0  0
   -7.2626   -3.1774    0.0000 C   0  0  0  0  0  0  0  0  0  0  0  0
  -14.2293   -1.6673    0.0000 C   0  0  0  0  0  0  0  0  0  0  0  0
  -13.0395   -2.7095    0.0000 C   0  0  0  0  0  0  0  0  0  0  0  0
  -12.1452   -3.9137    0.0000 O   0  0  0  0  0  0  0  0  0  0  0  0
  -14.4436   -3.2373    0.0000 N   0  0  0  0  0  0  0  0  0  0  0  0
  -14.6885   -4.7172    0.0000 C   0  0  0  0  0  0  0  0  0  0  0  0
  -14.4125   -6.1916    0.0000 C   0  0  0  0  0  0  0  0  0  0  0  0
  -15.5514   -7.1678    0.0000 C   0  0  0  0  0  0  0  0  0  0  0  0
  -15.2754   -8.6422    0.0000 C   0  0  0  0  0  0  0  0  0  0  0  0
  -16.9555   -7.6956    0.0000 C   0  0  0  0  0  0  0  0  0  0  0  0
  -16.0926   -5.2450    0.0000 C   0  0  0  0  0  0  0  0  0  0  0  0
  -17.2517   -4.2929    0.0000 O   0  0  0  0  0  0  0  0  0  0  0  0
  -16.3375   -6.7249    0.0000 N   0  0  0  0  0  0  0  0  0  0  0  0
  -17.7416   -7.2527    0.0000 C   0  0  0  0  0  0  0  0  0  0  0  0
  -19.2415   -7.2685    0.0000 C   0  0  0  0  0  0  0  0  0  0  0  0
  -20.0051   -5.9774    0.0000 C   0  0  0  0  0  0  0  0  0  0  0  0
  -21.5050   -5.9932    0.0000 C   0  0  0  0  0  0  0  0  0  0  0  0
  -22.2687   -4.7021    0.0000 N   0  0  0  0  0  0  0  0  0  0  0  0
  -23.7686   -4.7179    0.0000 C   0  0  0  0  0  0  0  0  0  0  0  0
  -24.5322   -3.4268    0.0000 N   0  0  0  0  0  0  0  0  0  0  0  0
  -24.5049   -6.0247    0.0000 N   0  0  0  0  0  0  0  0  0  0  0  0
  -17.9865   -8.7326    0.0000 C   0  0  0  0  0  0  0  0  0  0  0  0
  -16.9521   -9.8188    0.0000 O   0  0  0  0  0  0  0  0  0  0  0  0
  -19.3906   -9.2604    0.0000 N   0  0  0  0  0  0  0  0  0  0  0  0
  -19.6355  -10.7402    0.0000 C   0  0  0  0  0  0  0  0  0  0  0  0
  -21.0396  -11.2681    0.0000 C   0  0  0  0  0  0  0  0  0  0  0  0
  -22.1987  -10.3160    0.0000 O   0  0  0  0  0  0  0  0  0  0  0  0
  -21.2845  -12.7479    0.0000 N   0  0  0  0  0  0  0  0  0  0  0  0
  -22.6886  -13.2758    0.0000 C   0  0  0  0  0  0  0  0  0  0  0  0
  -24.1885  -13.2915    0.0000 C   0  0  0  0  0  0  0  0  0  0  0  0
  -25.5925  -13.8194    0.0000 O   0  0  0  0  0  0  0  0  0  0  0  0
  -24.9521  -12.0005    0.0000 C   0  0  0  0  0  0  0  0  0  0  0  0
  -22.9335  -14.7556    0.0000 C   0  0  0  0  0  0  0  0  0  0  0  0
  -24.2627  -15.4507    0.0000 O   0  0  0  0  0  0  0  0  0  0  0  0
  -21.7743  -15.7077    0.0000 O   0  0  0  0  0  0  0  0  0  0  0  0
   32.0340    0.1637    0.0000 H   0  0  0  0  0  0  0  0  0  0  0  0
   32.0503   -4.3288    0.0000 H   0  0  0  0  0  0  0  0  0  0  0  0
   34.5910   -5.9241    0.0000 H   0  0  0  0  0  0  0  0  0  0  0  0
   34.4491    0.0407    0.0000 H   0  0  0  0  0  0  0  0  0  0  0  0
   41.4587    1.5169    0.0000 H   0  0  0  0  0  0  0  0  0  0  0  0
   42.3499   -3.6023    0.0000 H   0  0  0  0  0  0  0  0  0  0  0  0
   39.3943   -4.1168    0.0000 H   0  0  0  0  0  0  0  0  0  0  0  0
   44.3437   -1.9366    0.0000 H   0  0  0  0  0  0  0  0  0  0  0  0
   34.5154   -2.3290    0.0000 H   0  0  0  0  0  0  0  0  0  0  0  0
   32.5717    0.1554    0.0000 H   0  0  0  0  0  0  0  0  0  0  0  0
   36.5798    3.3047    0.0000 H   0  0  0  0  0  0  0  0  0  0  0  0
   34.1403    4.1986    0.0000 H   0  0  0  0  0  0  0  0  0  0  0  0
   29.6209    0.2645    0.0000 H   0  0  0  0  0  0  0  0  0  0  0  0
   29.1602   -3.1198    0.0000 H   0  0  0  0  0  0  0  0  0  0  0  0
   27.2332   -3.0484    0.0000 H   0  0  0  0  0  0  0  0  0  0  0  0
   27.9751   -0.0257    0.0000 H   0  0  0  0  0  0  0  0  0  0  0  0
   26.1992    0.1493    0.0000 H   0  0  0  0  0  0  0  0  0  0  0  0
   25.2357    0.1850    0.0000 H   0  0  0  0  0  0  0  0  0  0  0  0
   23.4518    0.1422    0.0000 H   0  0  0  0  0  0  0  0  0  0  0  0
   23.9676   -2.9272    0.0000 H   0  0  0  0  0  0  0  0  0  0  0  0
   22.1837   -2.9701    0.0000 H   0  0  0  0  0  0  0  0  0  0  0  0
   21.2202   -2.9343    0.0000 H   0  0  0  0  0  0  0  0  0  0  0  0
   19.4443   -2.7594    0.0000 H   0  0  0  0  0  0  0  0  0  0  0  0
   20.1862    0.2633    0.0000 H   0  0  0  0  0  0  0  0  0  0  0  0
   18.2592    0.3348    0.0000 H   0  0  0  0  0  0  0  0  0  0  0  0
   17.7985   -3.0495    0.0000 H   0  0  0  0  0  0  0  0  0  0  0  0
   16.1788   -2.6382    0.0000 H   0  0  0  0  0  0  0  0  0  0  0  0
   14.2517   -2.5667    0.0000 H   0  0  0  0  0  0  0  0  0  0  0  0
   14.9936    0.4560    0.0000 H   0  0  0  0  0  0  0  0  0  0  0  0
   13.0666    0.5275    0.0000 H   0  0  0  0  0  0  0  0  0  0  0  0
   11.4468    0.9387    0.0000 H   0  0  0  0  0  0  0  0  0  0  0  0
    9.7823    0.2115    0.0000 H   0  0  0  0  0  0  0  0  0  0  0  0
    9.8693   -3.4469    0.0000 H   0  0  0  0  0  0  0  0  0  0  0  0
   13.5304   -3.3030    0.0000 H   0  0  0  0  0  0  0  0  0  0  0  0
   13.7980   -1.5387    0.0000 H   0  0  0  0  0  0  0  0  0  0  0  0
   12.4154   -0.7455    0.0000 H   0  0  0  0  0  0  0  0  0  0  0  0
   11.3910   -5.3721    0.0000 H   0  0  0  0  0  0  0  0  0  0  0  0
    9.9969   -4.2583    0.0000 H   0  0  0  0  0  0  0  0  0  0  0  0
   13.3736   -5.6158    0.0000 H   0  0  0  0  0  0  0  0  0  0  0  0
   14.3990   -3.9827    0.0000 H   0  0  0  0  0  0  0  0  0  0  0  0
   13.5024   -2.8088    0.0000 H   0  0  0  0  0  0  0  0  0  0  0  0
    8.2234    1.1065    0.0000 H   0  0  0  0  0  0  0  0  0  0  0  0
    6.2283    1.0104    0.0000 H   0  0  0  0  0  0  0  0  0  0  0  0
    6.3952   -3.3972    0.0000 H   0  0  0  0  0  0  0  0  0  0  0  0
    5.2411   -2.4751    0.0000 H   0  0  0  0  0  0  0  0  0  0  0  0
    8.5163   -0.7903    0.0000 H   0  0  0  0  0  0  0  0  0  0  0  0
    9.8162   -4.4786    0.0000 H   0  0  0  0  0  0  0  0  0  0  0  0
    8.5044   -5.1578    0.0000 H   0  0  0  0  0  0  0  0  0  0  0  0
    7.1103   -4.0439    0.0000 H   0  0  0  0  0  0  0  0  0  0  0  0
   10.5064   -3.2097    0.0000 H   0  0  0  0  0  0  0  0  0  0  0  0
   11.0417   -1.6661    0.0000 H   0  0  0  0  0  0  0  0  0  0  0  0
    8.9545   -0.6649    0.0000 H   0  0  0  0  0  0  0  0  0  0  0  0
    5.2518    2.3666    0.0000 H   0  0  0  0  0  0  0  0  0  0  0  0
    3.3441    2.9587    0.0000 H   0  0  0  0  0  0  0  0  0  0  0  0
    1.9934   -1.2402    0.0000 H   0  0  0  0  0  0  0  0  0  0  0  0
    1.2570    0.3852    0.0000 H   0  0  0  0  0  0  0  0  0  0  0  0
    5.4604   -1.0426    0.0000 H   0  0  0  0  0  0  0  0  0  0  0  0
    4.8783    0.4841    0.0000 H   0  0  0  0  0  0  0  0  0  0  0  0
    3.3733   -3.6160    0.0000 H   0  0  0  0  0  0  0  0  0  0  0  0
    2.4443   -2.0925    0.0000 H   0  0  0  0  0  0  0  0  0  0  0  0
    6.6649   -2.6645    0.0000 H   0  0  0  0  0  0  0  0  0  0  0  0
    6.3677   -6.8197    0.0000 H   0  0  0  0  0  0  0  0  0  0  0  0
    7.7493   -4.6194    0.0000 H   0  0  0  0  0  0  0  0  0  0  0  0
    3.7714   -6.7234    0.0000 H   0  0  0  0  0  0  0  0  0  0  0  0
    2.5567   -4.4268    0.0000 H   0  0  0  0  0  0  0  0  0  0  0  0
    2.9660    4.4002    0.0000 H   0  0  0  0  0  0  0  0  0  0  0  0
    1.6336    3.3433    0.0000 H   0  0  0  0  0  0  0  0  0  0  0  0
    1.1070    2.0213    0.0000 H   0  0  0  0  0  0  0  0  0  0  0  0
    1.1841    1.4398    0.0000 H   0  0  0  0  0  0  0  0  0  0  0  0
    0.5961    0.5214    0.0000 H   0  0  0  0  0  0  0  0  0  0  0  0
    0.5184    0.3726    0.0000 H   0  0  0  0  0  0  0  0  0  0  0  0
   -0.1830   -0.8655    0.0000 H   0  0  0  0  0  0  0  0  0  0  0  0
   -0.4976   -1.2611    0.0000 H   0  0  0  0  0  0  0  0  0  0  0  0
   -1.3714   -2.1678    0.0000 H   0  0  0  0  0  0  0  0  0  0  0  0
   -1.7551   -2.4967    0.0000 H   0  0  0  0  0  0  0  0  0  0  0  0
   -2.7846   -3.2216    0.0000 H   0  0  0  0  0  0  0  0  0  0  0  0
   -3.2237   -3.4719    0.0000 H   0  0  0  0  0  0  0  0  0  0  0  0
   -4.5545   -3.9758    0.0000 H   0  0  0  0  0  0  0  0  0  0  0  0
   -5.4309   -4.4315    0.0000 H   0  0  0  0  0  0  0  0  0  0  0  0
    2.9686    4.8980    0.0000 H   0  0  0  0  0  0  0  0  0  0  0  0
    2.6426    6.4989    0.0000 H   0  0  0  0  0  0  0  0  0  0  0  0
    0.8801    6.7778    0.0000 H   0  0  0  0  0  0  0  0  0  0  0  0
    1.1401    8.1488    0.0000 H   0  0  0  0  0  0  0  0  0  0  0  0
    0.5643    8.9515    0.0000 H   0  0  0  0  0  0  0  0  0  0  0  0
    1.2122   10.3975    0.0000 H   0  0  0  0  0  0  0  0  0  0  0  0
    0.0477   11.7496    0.0000 H   0  0  0  0  0  0  0  0  0  0  0  0
   -1.5858   11.0313    0.0000 H   0  0  0  0  0  0  0  0  0  0  0  0
   -1.9664   12.2093    0.0000 H   0  0  0  0  0  0  0  0  0  0  0  0
   -2.9355   12.5303    0.0000 H   0  0  0  0  0  0  0  0  0  0  0  0
   -4.9740   14.7638    0.0000 H   0  0  0  0  0  0  0  0  0  0  0  0
   -5.9598   13.2764    0.0000 H   0  0  0  0  0  0  0  0  0  0  0  0
   -3.4452   15.7449    0.0000 H   0  0  0  0  0  0  0  0  0  0  0  0
   -1.8286   14.6937    0.0000 H   0  0  0  0  0  0  0  0  0  0  0  0
   -2.2798   13.1234    0.0000 H   0  0  0  0  0  0  0  0  0  0  0  0
   -7.0989   14.0825    0.0000 H   0  0  0  0  0  0  0  0  0  0  0  0
   -8.0682   13.8922    0.0000 H   0  0  0  0  0  0  0  0  0  0  0  0
  -10.8281   14.5846    0.0000 H   0  0  0  0  0  0  0  0  0  0  0  0
  -10.8533   12.8004    0.0000 H   0  0  0  0  0  0  0  0  0  0  0  0
  -10.0724   16.2365    0.0000 H   0  0  0  0  0  0  0  0  0  0  0  0
  -12.2474   12.8626    0.0000 H   0  0  0  0  0  0  0  0  0  0  0  0
  -12.9599   12.1785    0.0000 H   0  0  0  0  0  0  0  0  0  0  0  0
  -15.6560   11.2689    0.0000 H   0  0  0  0  0  0  0  0  0  0  0  0
  -14.7125    9.7543    0.0000 H   0  0  0  0  0  0  0  0  0  0  0  0
  -17.1517   12.4545    0.0000 H   0  0  0  0  0  0  0  0  0  0  0  0
  -16.8344   15.7024    0.0000 H   0  0  0  0  0  0  0  0  0  0  0  0
  -13.6474   16.4043    0.0000 H   0  0  0  0  0  0  0  0  0  0  0  0
  -15.8244    9.2099    0.0000 H   0  0  0  0  0  0  0  0  0  0  0  0
  -16.0042    8.2050    0.0000 H   0  0  0  0  0  0  0  0  0  0  0  0
  -17.9249    5.8694    0.0000 H   0  0  0  0  0  0  0  0  0  0  0  0
  -16.3123    5.1053    0.0000 H   0  0  0  0  0  0  0  0  0  0  0  0
  -18.1328    9.0603    0.0000 H   0  0  0  0  0  0  0  0  0  0  0  0
  -16.6845    8.7696    0.0000 H   0  0  0  0  0  0  0  0  0  0  0  0
  -21.6248    7.9089    0.0000 H   0  0  0  0  0  0  0  0  0  0  0  0
  -20.8144    9.6587    0.0000 H   0  0  0  0  0  0  0  0  0  0  0  0
  -19.0648    9.3075    0.0000 H   0  0  0  0  0  0  0  0  0  0  0  0
  -16.9534    4.0461    0.0000 H   0  0  0  0  0  0  0  0  0  0  0  0
  -16.5613    3.1036    0.0000 H   0  0  0  0  0  0  0  0  0  0  0  0
  -16.7492    0.0212    0.0000 H   0  0  0  0  0  0  0  0  0  0  0  0
  -15.1447    0.3294    0.0000 H   0  0  0  0  0  0  0  0  0  0  0  0
  -18.8144    2.6723    0.0000 H   0  0  0  0  0  0  0  0  0  0  0  0
  -17.4389    3.2107    0.0000 H   0  0  0  0  0  0  0  0  0  0  0  0
  -19.0483   -0.8348    0.0000 H   0  0  0  0  0  0  0  0  0  0  0  0
  -17.4933   -0.3333    0.0000 H   0  0  0  0  0  0  0  0  0  0  0  0
  -21.3938    1.7259    0.0000 H   0  0  0  0  0  0  0  0  0  0  0  0
  -19.7321    2.3763    0.0000 H   0  0  0  0  0  0  0  0  0  0  0  0
  -22.5961    0.1308    0.0000 H   0  0  0  0  0  0  0  0  0  0  0  0
  -21.6945   -1.5738    0.0000 H   0  0  0  0  0  0  0  0  0  0  0  0
  -19.9659   -1.1308    0.0000 H   0  0  0  0  0  0  0  0  0  0  0  0
  -15.1114   -0.9082    0.0000 H   0  0  0  0  0  0  0  0  0  0  0  0
  -11.5379   -3.6057    0.0000 H   0  0  0  0  0  0  0  0  0  0  0  0
  -12.6943   -3.1075    0.0000 H   0  0  0  0  0  0  0  0  0  0  0  0
  -10.0747   -4.2299    0.0000 H   0  0  0  0  0  0  0  0  0  0  0  0
  -11.1235   -3.9312    0.0000 H   0  0  0  0  0  0  0  0  0  0  0  0
   -8.1665   -4.4754    0.0000 H   0  0  0  0  0  0  0  0  0  0  0  0
   -9.5842   -4.3517    0.0000 H   0  0  0  0  0  0  0  0  0  0  0  0
   -7.1993   -4.6761    0.0000 H   0  0  0  0  0  0  0  0  0  0  0  0
  -14.9112   -3.0034    0.0000 H   0  0  0  0  0  0  0  0  0  0  0  0
  -15.7272   -1.5879    0.0000 H   0  0  0  0  0  0  0  0  0  0  0  0
  -14.7661   -0.2667    0.0000 H   0  0  0  0  0  0  0  0  0  0  0  0
  -15.7102   -2.4336    0.0000 H   0  0  0  0  0  0  0  0  0  0  0  0
  -13.1886   -4.7014    0.0000 H   0  0  0  0  0  0  0  0  0  0  0  0
  -13.4972   -7.3799    0.0000 H   0  0  0  0  0  0  0  0  0  0  0  0
  -13.0085   -5.6637    0.0000 H   0  0  0  0  0  0  0  0  0  0  0  0
  -16.8318   -6.3865    0.0000 H   0  0  0  0  0  0  0  0  0  0  0  0
  -16.1442   -9.8649    0.0000 H   0  0  0  0  0  0  0  0  0  0  0  0
  -14.5118   -9.9332    0.0000 H   0  0  0  0  0  0  0  0  0  0  0  0
  -13.8175   -8.2894    0.0000 H   0  0  0  0  0  0  0  0  0  0  0  0
  -18.3105   -7.0523    0.0000 H   0  0  0  0  0  0  0  0  0  0  0  0
  -17.6687   -9.0152    0.0000 H   0  0  0  0  0  0  0  0  0  0  0  0
  -16.3549   -9.0701    0.0000 H   0  0  0  0  0  0  0  0  0  0  0  0
  -15.4432   -7.9291    0.0000 H   0  0  0  0  0  0  0  0  0  0  0  0
  -17.8358   -5.7556    0.0000 H   0  0  0  0  0  0  0  0  0  0  0  0
  -20.6456   -7.7963    0.0000 H   0  0  0  0  0  0  0  0  0  0  0  0
  -19.5123   -8.7438    0.0000 H   0  0  0  0  0  0  0  0  0  0  0  0
  -20.2811   -4.5030    0.0000 H   0  0  0  0  0  0  0  0  0  0  0  0
  -18.6759   -5.2823    0.0000 H   0  0  0  0  0  0  0  0  0  0  0  0
  -22.9091   -6.5210    0.0000 H   0  0  0  0  0  0  0  0  0  0  0  0
  -21.4108   -7.4902    0.0000 H   0  0  0  0  0  0  0  0  0  0  0  0
  -21.5324   -3.3952    0.0000 H   0  0  0  0  0  0  0  0  0  0  0  0
  -26.0321   -3.4425    0.0000 H   0  0  0  0  0  0  0  0  0  0  0  0
  -23.7959   -2.1199    0.0000 H   0  0  0  0  0  0  0  0  0  0  0  0
  -26.0048   -6.0405    0.0000 H   0  0  0  0  0  0  0  0  0  0  0  0
  -23.7413   -7.3158    0.0000 H   0  0  0  0  0  0  0  0  0  0  0  0
  -20.6571   -8.4567    0.0000 H   0  0  0  0  0  0  0  0  0  0  0  0
  -19.3595  -12.2146    0.0000 H   0  0  0  0  0  0  0  0  0  0  0  0
  -18.1356  -10.7245    0.0000 H   0  0  0  0  0  0  0  0  0  0  0  0
  -20.1253  -13.7000    0.0000 H   0  0  0  0  0  0  0  0  0  0  0  0
  -22.7828  -11.7787    0.0000 H   0  0  0  0  0  0  0  0  0  0  0  0
  -24.0943  -14.7886    0.0000 H   0  0  0  0  0  0  0  0  0  0  0  0
  -26.8591  -13.0157    0.0000 H   0  0  0  0  0  0  0  0  0  0  0  0
  -26.4427  -11.8333    0.0000 H   0  0  0  0  0  0  0  0  0  0  0  0
  -25.2281  -10.5261    0.0000 H   0  0  0  0  0  0  0  0  0  0  0  0
  -23.6228  -11.3054    0.0000 H   0  0  0  0  0  0  0  0  0  0  0  0
  1  2  1  0
  2  3  1  0
  3  4  2  0
  4  5  1  0
  5  6  2  0
  6  7  1  0
  7  8  2  0
  7  9  1  0
  9 10  1  0
 10 11  1  0
 11 12  2  0
  9 13  1  0
 13 14  1  0
 14 15  2  0
 15 16  1  0
 16 17  2  0
 17 18  1  0
 16 19  1  0
 14 20  1  0
 20 21  1  0
 21 22  2  0
 22 23  1  0
 23 24  2  0
 24 25  1  0
 25 26  2  0
 25 27  1  0
  1 28  2  0
  1 29  1  0
 29 30  1  0
 30 31  1  0
 31 32  1  0
 32 33  1  0
 33 34  1  0
 34 35  1  0
 35 36  1  0
 36 37  1  0
 37 38  1  0
 38 39  1  0
 39 40  2  0
 39 41  1  0
 41 42  1  0
 42 43  1  0
 43 44  2  0
 43 45  1  0
 45 46  1  0
 46 47  1  0
 47 48  1  0
 47 49  1  0
 49 50  1  0
 46 51  1  0
 51 52  2  0
 51 53  1  0
 53 54  1  0
 54 55  1  0
 55 56  1  0
 56 57  1  0
 56 58  1  0
 54 59  1  0
 59 60  2  0
 59 61  1  0
 61 62  1  0
 62 63  1  0
 63 64  1  0
 64 65  1  0
 65 66  1  0
 66 67  1  0
 67 68  2  3
 67 69  1  0
 62 70  1  0
 70 71  2  0
 70 72  1  0
 73 72  1  6
 73 74  1  0
 74 75  1  0
 75 76  1  0
 76 77  1  0
 77 78  1  0
 78 79  1  0
 79 80  1  0
 73 81  1  0
 73 82  1  0
 82 83  2  0
 82 84  1  0
 84 85  1  0
 85 86  1  0
 85 87  1  0
 87 88  2  0
 87 89  1  0
 89 90  1  0
 90 91  1  0
 91 92  1  0
 90 93  1  0
 93 94  2  0
 93 95  1  0
 95 96  1  0
 96 97  1  0
 97 98  1  0
 96 99  1  0
 99100  2  0
 99101  1  0
101102  1  0
102103  1  0
103104  1  0
104105  2  0
105106  1  0
106107  1  0
107108  2  0
102109  1  0
109110  2  0
109111  1  0
111112  1  0
112113  1  0
113114  1  0
114115  1  0
115116  1  0
112117  1  0
117118  2  0
117119  1  0
119120  1  0
120121  1  0
121122  1  0
122123  1  0
123124  1  0
124125  1  0
120126  1  0
126127  2  0
126128  1  0
128129  1  0
129130  1  0
130131  1  0
131132  1  0
132133  1  0
129134  1  0
129135  1  1
135136  2  0
135137  1  0
137138  1  0
138139  1  0
139140  1  0
140141  1  0
140142  1  0
138143  1  0
143144  2  0
143145  1  0
145146  1  0
146147  1  0
147148  1  0
148149  1  0
149150  1  0
150151  1  0
151152  2  3
151153  1  0
146154  1  0
154155  2  0
154156  1  0
156157  1  0
157158  1  0
158159  2  0
158160  1  0
160161  1  0
161162  1  0
162163  1  0
162164  1  0
161165  1  0
165166  2  0
165167  1  0
  8  3  1  0
108104  1  0
 11  6  1  0
 18 13  2  0
 80133  2  0
 22  9  1  0
 26 21  1  0
  2168  1  0
  4169  1  0
  5170  1  0
  8171  1  0
 15172  1  0
 17173  1  0
 18174  1  0
 19175  1  0
 23176  1  0
 24177  1  0
 26178  1  0
 27179  1  0
 29180  1  0
 30181  1  0
 30182  1  0
 31183  1  0
 31184  1  0
 33185  1  0
 33186  1  0
 34187  1  0
 34188  1  0
 36189  1  0
 36190  1  0
 37191  1  0
 37192  1  0
 38193  1  0
 41194  1  0
 41195  1  0
 42196  1  0
 42197  1  0
 45198  1  0
 46199  1  1
 47200  1  6
 48201  1  0
 48202  1  0
 48203  1  0
 49204  1  0
 49205  1  0
 50206  1  0
 50207  1  0
 50208  1  0
 53209  1  0
 54210  1  1
 55211  1  0
 55212  1  0
 56213  1  0
 57214  1  0
 57215  1  0
 57216  1  0
 58217  1  0
 58218  1  0
 58219  1  0
 61220  1  0
 62221  1  1
 63222  1  0
 63223  1  0
 64224  1  0
 64225  1  0
 65226  1  0
 65227  1  0
 66228  1  0
 68229  1  0
 68230  1  0
 69231  1  0
 69232  1  0
 72233  1  0
 74234  1  0
 74235  1  0
 75236  1  0
 75237  1  0
 76238  1  0
 76239  1  0
 77240  1  0
 77241  1  0
 78242  1  0
 78243  1  0
 79244  1  0
 79245  1  0
 80246  1  0
 81247  1  0
 81248  1  0
 81249  1  0
 84250  1  0
 85251  1  6
 86252  1  0
 86253  1  0
 86254  1  0
 89255  1  0
 90256  1  6
 91257  1  0
 91258  1  0
 92259  1  0
 92260  1  0
 92261  1  0
 95262  1  0
 96263  1  6
 97264  1  0
 97265  1  0
 98266  1  0
101267  1  0
102268  1  6
103269  1  0
103270  1  0
105271  1  0
106272  1  0
107273  1  0
111274  1  0
112275  1  6
113276  1  0
113277  1  0
114278  1  0
114279  1  0
116280  1  0
116281  1  0
116282  1  0
119283  1  0
120284  1  6
121285  1  0
121286  1  0
122287  1  0
122288  1  0
123289  1  0
123290  1  0
124291  1  0
124292  1  0
125293  1  0
125294  1  0
125295  1  0
128296  1  0
130297  1  0
130298  1  0
131299  1  0
131300  1  0
132301  1  0
132302  1  0
133303  1  0
134304  1  0
134305  1  0
134306  1  0
137307  1  0
138308  1  1
139309  1  0
139310  1  0
140311  1  0
141312  1  0
141313  1  0
141314  1  0
142315  1  0
142316  1  0
142317  1  0
145318  1  0
146319  1  6
147320  1  0
147321  1  0
148322  1  0
148323  1  0
149324  1  0
149325  1  0
150326  1  0
152327  1  0
152328  1  0
153329  1  0
153330  1  0
156331  1  0
157332  1  0
157333  1  0
160334  1  0
161335  1  6
162336  1  1
163337  1  0
164338  1  0
164339  1  0
164340  1  0
M  CHG  4  68   1 125   1 152   1 167  -1
M  END
