
     RDKit          2D

344351  0  0  0  0  0  0  0  0999 V2000
   36.9925   -1.8405    0.0000 C   0  0  0  0  0  0  0  0  0  0  0  0
   38.2845   -1.0784    0.0000 N   0  0  0  0  0  0  0  0  0  0  0  0
   39.5905   -1.8163    0.0000 C   0  0  0  0  0  0  0  0  0  0  0  0
   39.6045   -3.3162    0.0000 C   0  0  0  0  0  0  0  0  0  0  0  0
   40.9104   -4.0541    0.0000 C   0  0  0  0  0  0  0  0  0  0  0  0
   42.2024   -3.2920    0.0000 C   0  0  0  0  0  0  0  0  0  0  0  0
   42.1884   -1.7920    0.0000 C   0  0  0  0  0  0  0  0  0  0  0  0
   40.8824   -1.0542    0.0000 C   0  0  0  0  0  0  0  0  0  0  0  0
   43.6106   -1.3152    0.0000 C   0  0  0  0  0  0  0  0  0  0  0  0
   44.5036   -2.5205    0.0000 O   0  0  0  0  0  0  0  0  0  0  0  0
   43.6333   -3.7422    0.0000 C   0  0  0  0  0  0  0  0  0  0  0  0
   44.1101   -5.1644    0.0000 O   0  0  0  0  0  0  0  0  0  0  0  0
   45.0749   -0.9897    0.0000 C   0  0  0  0  0  0  0  0  0  0  0  0
   45.5251    0.4412    0.0000 C   0  0  0  0  0  0  0  0  0  0  0  0
   46.9893    0.7667    0.0000 C   0  0  0  0  0  0  0  0  0  0  0  0
   48.0034   -0.3386    0.0000 C   0  0  0  0  0  0  0  0  0  0  0  0
   47.5532   -1.7694    0.0000 C   0  0  0  0  0  0  0  0  0  0  0  0
   46.0889   -2.0950    0.0000 C   0  0  0  0  0  0  0  0  0  0  0  0
   49.4676   -0.0130    0.0000 O   0  0  0  0  0  0  0  0  0  0  0  0
   44.5110    1.5465    0.0000 O   0  0  0  0  0  0  0  0  0  0  0  0
   43.0468    1.2209    0.0000 C   0  0  0  0  0  0  0  0  0  0  0  0
   42.5966   -0.2099    0.0000 C   0  0  0  0  0  0  0  0  0  0  0  0
   41.3424    0.1323    0.0000 C   0  0  0  0  0  0  0  0  0  0  0  0
   40.8016    0.7218    0.0000 C   0  0  0  0  0  0  0  0  0  0  0  0
   41.0417    1.4849    0.0000 C   0  0  0  0  0  0  0  0  0  0  0  0
   41.8226    1.6585    0.0000 C   0  0  0  0  0  0  0  0  0  0  0  0
   39.5544    3.1060    0.0000 O   0  0  0  0  0  0  0  0  0  0  0  0
   37.0065   -3.3405    0.0000 S   0  0  0  0  0  0  0  0  0  0  0  0
   35.6865   -1.1027    0.0000 N   0  0  0  0  0  0  0  0  0  0  0  0
   34.3945   -1.8648    0.0000 C   0  0  0  0  0  0  0  0  0  0  0  0
   33.0886   -1.1269    0.0000 C   0  0  0  0  0  0  0  0  0  0  0  0
   31.7966   -1.8890    0.0000 O   0  0  0  0  0  0  0  0  0  0  0  0
   30.4906   -1.1512    0.0000 C   0  0  0  0  0  0  0  0  0  0  0  0
   29.1986   -1.9133    0.0000 C   0  0  0  0  0  0  0  0  0  0  0  0
   27.8926   -1.1754    0.0000 O   0  0  0  0  0  0  0  0  0  0  0  0
   26.6006   -1.9375    0.0000 C   0  0  0  0  0  0  0  0  0  0  0  0
   25.2947   -1.1997    0.0000 C   0  0  0  0  0  0  0  0  0  0  0  0
   24.0027   -1.9617    0.0000 O   0  0  0  0  0  0  0  0  0  0  0  0
   22.6967   -1.2239    0.0000 C   0  0  0  0  0  0  0  0  0  0  0  0
   21.4047   -1.9860    0.0000 C   0  0  0  0  0  0  0  0  0  0  0  0
   20.0987   -1.2481    0.0000 O   0  0  0  0  0  0  0  0  0  0  0  0
   18.8068   -2.0102    0.0000 C   0  0  0  0  0  0  0  0  0  0  0  0
   17.5008   -1.2724    0.0000 C   0  0  0  0  0  0  0  0  0  0  0  0
   16.2088   -2.0345    0.0000 O   0  0  0  0  0  0  0  0  0  0  0  0
   14.9028   -1.2966    0.0000 C   0  0  0  0  0  0  0  0  0  0  0  0
   13.6108   -2.0587    0.0000 C   0  0  0  0  0  0  0  0  0  0  0  0
   12.3048   -1.3209    0.0000 O   0  0  0  0  0  0  0  0  0  0  0  0
   11.0129   -2.0830    0.0000 C   0  0  0  0  0  0  0  0  0  0  0  0
    9.7069   -1.3451    0.0000 C   0  0  0  0  0  0  0  0  0  0  0  0
    8.4149   -2.1072    0.0000 C   0  0  0  0  0  0  0  0  0  0  0  0
    8.6150   -2.8789    0.0000 O   0  0  0  0  0  0  0  0  0  0  0  0
    7.1089   -1.3694    0.0000 N   0  0  0  0  0  0  0  0  0  0  0  0
    5.8169   -2.1315    0.0000 C   0  0  0  0  0  0  0  0  0  0  0  0
    6.7918   -3.2715    0.0000 C   0  0  0  0  0  0  0  0  0  0  0  0
    8.2665   -2.9972    0.0000 C   0  0  0  0  0  0  0  0  0  0  0  0
    9.2414   -4.1373    0.0000 N   0  0  0  0  0  0  0  0  0  0  0  0
    9.0937   -1.7459    0.0000 O   0  0  0  0  0  0  0  0  0  0  0  0
    4.3422   -2.4057    0.0000 C   0  0  0  0  0  0  0  0  0  0  0  0
    4.1994   -3.8989    0.0000 O   0  0  0  0  0  0  0  0  0  0  0  0
    3.3674   -1.2657    0.0000 N   0  0  0  0  0  0  0  0  0  0  0  0
    1.8926   -1.5399    0.0000 C   0  0  0  0  0  0  0  0  0  0  0  0
    2.4188   -2.9446    0.0000 C   0  0  0  0  0  0  0  0  0  0  0  0
    3.8984   -3.1913    0.0000 C   0  0  0  0  0  0  0  0  0  0  0  0
    4.4245   -4.5960    0.0000 C   0  0  0  0  0  0  0  0  0  0  0  0
    5.8630   -5.0212    0.0000 N   0  0  0  0  0  0  0  0  0  0  0  0
    3.4711   -5.7540    0.0000 O   0  0  0  0  0  0  0  0  0  0  0  0
    0.4131   -1.2933    0.0000 C   0  0  0  0  0  0  0  0  0  0  0  0
   -0.2318   -2.6476    0.0000 O   0  0  0  0  0  0  0  0  0  0  0  0
   -0.1131    0.1114    0.0000 N   0  0  0  0  0  0  0  0  0  0  0  0
   -1.5927    0.3581    0.0000 C   0  0  0  0  0  0  0  0  0  0  0  0
   -1.5787   -1.1418    0.0000 C   0  0  0  0  0  0  0  0  0  0  0  0
   -0.2727   -1.8797    0.0000 C   0  0  0  0  0  0  0  0  0  0  0  0
   -0.2587   -3.3796    0.0000 C   0  0  0  0  0  0  0  0  0  0  0  0
    1.2069   -2.1263    0.0000 C   0  0  0  0  0  0  0  0  0  0  0  0
   -2.8987    1.0960    0.0000 C   0  0  0  0  0  0  0  0  0  0  0  0
   -3.9678    0.0439    0.0000 O   0  0  0  0  0  0  0  0  0  0  0  0
   -2.9127    2.5959    0.0000 N   0  0  0  0  0  0  0  0  0  0  0  0
   -4.2186    3.3337    0.0000 C   0  0  0  0  0  0  0  0  0  0  0  0
   -4.2998    1.8359    0.0000 C   0  0  0  0  0  0  0  0  0  0  0  0
   -4.6630    0.3806    0.0000 C   0  0  0  0  0  0  0  0  0  0  0  0
   -5.2950   -0.9798    0.0000 C   0  0  0  0  0  0  0  0  0  0  0  0
   -6.1730   -2.1959    0.0000 C   0  0  0  0  0  0  0  0  0  0  0  0
   -7.2654   -3.2239    0.0000 C   0  0  0  0  0  0  0  0  0  0  0  0
   -8.5325   -4.0266    0.0000 C   0  0  0  0  0  0  0  0  0  0  0  0
   -9.9287   -4.5750    0.0000 C   0  0  0  0  0  0  0  0  0  0  0  0
   -2.9776    4.1762    0.0000 C   0  0  0  0  0  0  0  0  0  0  0  0
   -4.4224    4.8198    0.0000 C   0  0  0  0  0  0  0  0  0  0  0  0
   -3.0152    5.3393    0.0000 O   0  0  0  0  0  0  0  0  0  0  0  0
   -4.9037    6.2405    0.0000 N   0  0  0  0  0  0  0  0  0  0  0  0
   -5.6452    7.5444    0.0000 C   0  0  0  0  0  0  0  0  0  0  0  0
   -5.0567    8.9241    0.0000 C   0  0  0  0  0  0  0  0  0  0  0  0
   -3.5675    9.1043    0.0000 C   0  0  0  0  0  0  0  0  0  0  0  0
   -2.9790   10.4840    0.0000 C   0  0  0  0  0  0  0  0  0  0  0  0
   -1.4898   10.6642    0.0000 N   0  0  0  0  0  0  0  0  0  0  0  0
   -0.9013   12.0439    0.0000 C   0  0  0  0  0  0  0  0  0  0  0  0
    0.5878   12.2240    0.0000 N   0  0  0  0  0  0  0  0  0  0  0  0
   -1.8019   13.2434    0.0000 N   0  0  0  0  0  0  0  0  0  0  0  0
   -6.6201    8.6844    0.0000 C   0  0  0  0  0  0  0  0  0  0  0  0
   -5.7172    9.8822    0.0000 O   0  0  0  0  0  0  0  0  0  0  0  0
   -7.7931    9.6194    0.0000 N   0  0  0  0  0  0  0  0  0  0  0  0
   -9.1218   10.3154    0.0000 C   0  0  0  0  0  0  0  0  0  0  0  0
   -9.3726   11.7943    0.0000 C   0  0  0  0  0  0  0  0  0  0  0  0
   -8.2173   12.7509    0.0000 O   0  0  0  0  0  0  0  0  0  0  0  0
  -10.5583   10.7474    0.0000 C   0  0  0  0  0  0  0  0  0  0  0  0
  -10.4463   12.2432    0.0000 O   0  0  0  0  0  0  0  0  0  0  0  0
  -12.0505   10.8997    0.0000 N   0  0  0  0  0  0  0  0  0  0  0  0
  -13.5446   10.7669    0.0000 C   0  0  0  0  0  0  0  0  0  0  0  0
  -14.5552   11.8754    0.0000 C   0  0  0  0  0  0  0  0  0  0  0  0
  -14.1004   13.3048    0.0000 C   0  0  0  0  0  0  0  0  0  0  0  0
  -12.6351   13.6257    0.0000 C   0  0  0  0  0  0  0  0  0  0  0  0
  -12.1804   15.0551    0.0000 C   0  0  0  0  0  0  0  0  0  0  0  0
  -13.1910   16.1637    0.0000 C   0  0  0  0  0  0  0  0  0  0  0  0
  -14.6562   15.8428    0.0000 C   0  0  0  0  0  0  0  0  0  0  0  0
  -15.1110   14.4134    0.0000 C   0  0  0  0  0  0  0  0  0  0  0  0
  -14.9866   10.3537    0.0000 C   0  0  0  0  0  0  0  0  0  0  0  0
  -15.7011   11.6726    0.0000 O   0  0  0  0  0  0  0  0  0  0  0  0
  -16.3243    9.6751    0.0000 N   0  0  0  0  0  0  0  0  0  0  0  0
  -17.5094    8.7556    0.0000 C   0  0  0  0  0  0  0  0  0  0  0  0
  -18.9588    9.1418    0.0000 C   0  0  0  0  0  0  0  0  0  0  0  0
  -19.3491   10.5901    0.0000 C   0  0  0  0  0  0  0  0  0  0  0  0
  -18.2899   11.6523    0.0000 C   0  0  0  0  0  0  0  0  0  0  0  0
  -18.6802   13.1006    0.0000 C   0  0  0  0  0  0  0  0  0  0  0  0
  -20.1296   13.4868    0.0000 C   0  0  0  0  0  0  0  0  0  0  0  0
  -21.1888   12.4247    0.0000 C   0  0  0  0  0  0  0  0  0  0  0  0
  -20.7985   10.9763    0.0000 C   0  0  0  0  0  0  0  0  0  0  0  0
  -18.4991    7.6284    0.0000 C   0  0  0  0  0  0  0  0  0  0  0  0
  -19.8132    8.3517    0.0000 O   0  0  0  0  0  0  0  0  0  0  0  0
  -19.2576    6.3343    0.0000 N   0  0  0  0  0  0  0  0  0  0  0  0
  -19.7574    4.9200    0.0000 C   0  0  0  0  0  0  0  0  0  0  0  0
  -21.1856    4.4613    0.0000 C   0  0  0  0  0  0  0  0  0  0  0  0
  -19.9806    3.4367    0.0000 C   0  0  0  0  0  0  0  0  0  0  0  0
  -21.4771    3.3347    0.0000 O   0  0  0  0  0  0  0  0  0  0  0  0
  -19.9190    1.9380    0.0000 N   0  0  0  0  0  0  0  0  0  0  0  0
  -19.5749    0.4780    0.0000 C   0  0  0  0  0  0  0  0  0  0  0  0
  -20.5283   -0.6800    0.0000 C   0  0  0  0  0  0  0  0  0  0  0  0
  -22.0079   -0.4333    0.0000 C   0  0  0  0  0  0  0  0  0  0  0  0
  -22.9613   -1.5913    0.0000 C   0  0  0  0  0  0  0  0  0  0  0  0
  -23.3139    0.3045    0.0000 C   0  0  0  0  0  0  0  0  0  0  0  0
  -18.9607   -0.8905    0.0000 C   0  0  0  0  0  0  0  0  0  0  0  0
  -20.1645   -1.7854    0.0000 O   0  0  0  0  0  0  0  0  0  0  0  0
  -18.0986   -2.1180    0.0000 N   0  0  0  0  0  0  0  0  0  0  0  0
  -17.0198   -3.1602    0.0000 C   0  0  0  0  0  0  0  0  0  0  0  0
  -15.7633   -3.9794    0.0000 C   0  0  0  0  0  0  0  0  0  0  0  0
  -14.3744   -4.5460    0.0000 C   0  0  0  0  0  0  0  0  0  0  0  0
  -12.9034   -4.8395    0.0000 C   0  0  0  0  0  0  0  0  0  0  0  0
  -11.4034   -4.8493    0.0000 C   0  0  0  0  0  0  0  0  0  0  0  0
  -18.4327   -3.6640    0.0000 C   0  0  0  0  0  0  0  0  0  0  0  0
  -17.1958   -4.6498    0.0000 C   0  0  0  0  0  0  0  0  0  0  0  0
  -16.2466   -5.8113    0.0000 O   0  0  0  0  0  0  0  0  0  0  0  0
  -18.5739   -5.2422    0.0000 N   0  0  0  0  0  0  0  0  0  0  0  0
  -18.7499   -6.7319    0.0000 C   0  0  0  0  0  0  0  0  0  0  0  0
  -18.4058   -8.1919    0.0000 C   0  0  0  0  0  0  0  0  0  0  0  0
  -19.4981   -9.2199    0.0000 C   0  0  0  0  0  0  0  0  0  0  0  0
  -19.1540  -10.6799    0.0000 O   0  0  0  0  0  0  0  0  0  0  0  0
  -20.9964   -9.1483    0.0000 O   0  0  0  0  0  0  0  0  0  0  0  0
  -20.1279   -7.3243    0.0000 C   0  0  0  0  0  0  0  0  0  0  0  0
  -21.3300   -6.4270    0.0000 O   0  0  0  0  0  0  0  0  0  0  0  0
  -20.3039   -8.8139    0.0000 N   0  0  0  0  0  0  0  0  0  0  0  0
  -21.6820   -9.4063    0.0000 C   0  0  0  0  0  0  0  0  0  0  0  0
  -23.1796   -9.4917    0.0000 C   0  0  0  0  0  0  0  0  0  0  0  0
  -23.8544  -10.8313    0.0000 C   0  0  0  0  0  0  0  0  0  0  0  0
  -25.3520  -10.9166    0.0000 C   0  0  0  0  0  0  0  0  0  0  0  0
  -26.1851  -12.1640    0.0000 N   0  0  0  0  0  0  0  0  0  0  0  0
  -26.1747   -9.6624    0.0000 O   0  0  0  0  0  0  0  0  0  0  0  0
  -21.8580  -10.8960    0.0000 C   0  0  0  0  0  0  0  0  0  0  0  0
  -20.6559  -11.7932    0.0000 O   0  0  0  0  0  0  0  0  0  0  0  0
  -23.2360  -11.4884    0.0000 N   0  0  0  0  0  0  0  0  0  0  0  0
  -23.4120  -12.9780    0.0000 C   0  0  0  0  0  0  0  0  0  0  0  0
  -23.0679  -14.4380    0.0000 C   0  0  0  0  0  0  0  0  0  0  0  0
  -24.1603  -15.4660    0.0000 C   0  0  0  0  0  0  0  0  0  0  0  0
  -22.2452  -15.6923    0.0000 C   0  0  0  0  0  0  0  0  0  0  0  0
  -20.7477  -15.6069    0.0000 C   0  0  0  0  0  0  0  0  0  0  0  0
  -24.7901  -13.5704    0.0000 C   0  0  0  0  0  0  0  0  0  0  0  0
  -25.1464  -15.0275    0.0000 O   0  0  0  0  0  0  0  0  0  0  0  0
  -26.0926  -12.8264    0.0000 O   0  0  0  0  0  0  0  0  0  0  0  0
   38.0877    0.4086    0.0000 H   0  0  0  0  0  0  0  0  0  0  0  0
   38.3125   -4.0783    0.0000 H   0  0  0  0  0  0  0  0  0  0  0  0
   40.9244   -5.5540    0.0000 H   0  0  0  0  0  0  0  0  0  0  0  0
   40.5059    0.3978    0.0000 H   0  0  0  0  0  0  0  0  0  0  0  0
   47.4395    2.1976    0.0000 H   0  0  0  0  0  0  0  0  0  0  0  0
   48.5672   -2.8747    0.0000 H   0  0  0  0  0  0  0  0  0  0  0  0
   45.6387   -3.5258    0.0000 H   0  0  0  0  0  0  0  0  0  0  0  0
   50.4817   -1.1183    0.0000 H   0  0  0  0  0  0  0  0  0  0  0  0
   40.6821   -1.9663    0.0000 H   0  0  0  0  0  0  0  0  0  0  0  0
   38.6253    0.4252    0.0000 H   0  0  0  0  0  0  0  0  0  0  0  0
   42.4829    3.7571    0.0000 H   0  0  0  0  0  0  0  0  0  0  0  0
   40.0046    4.5368    0.0000 H   0  0  0  0  0  0  0  0  0  0  0  0
   35.6725    0.3973    0.0000 H   0  0  0  0  0  0  0  0  0  0  0  0
   35.3694   -3.0048    0.0000 H   0  0  0  0  0  0  0  0  0  0  0  0
   33.4411   -3.0228    0.0000 H   0  0  0  0  0  0  0  0  0  0  0  0
   34.0420    0.0311    0.0000 H   0  0  0  0  0  0  0  0  0  0  0  0
   32.2599    0.1234    0.0000 H   0  0  0  0  0  0  0  0  0  0  0  0
   31.2957    0.1144    0.0000 H   0  0  0  0  0  0  0  0  0  0  0  0
   29.5157   -0.0111    0.0000 H   0  0  0  0  0  0  0  0  0  0  0  0
   30.1735   -3.0533    0.0000 H   0  0  0  0  0  0  0  0  0  0  0  0
   28.3935   -3.1789    0.0000 H   0  0  0  0  0  0  0  0  0  0  0  0
   27.4293   -3.1879    0.0000 H   0  0  0  0  0  0  0  0  0  0  0  0
   25.6472   -3.0955    0.0000 H   0  0  0  0  0  0  0  0  0  0  0  0
   26.2481   -0.0416    0.0000 H   0  0  0  0  0  0  0  0  0  0  0  0
   24.4660    0.0507    0.0000 H   0  0  0  0  0  0  0  0  0  0  0  0
   23.5018    0.0417    0.0000 H   0  0  0  0  0  0  0  0  0  0  0  0
   21.7218   -0.0839    0.0000 H   0  0  0  0  0  0  0  0  0  0  0  0
   22.3796   -3.1260    0.0000 H   0  0  0  0  0  0  0  0  0  0  0  0
   20.5996   -3.2516    0.0000 H   0  0  0  0  0  0  0  0  0  0  0  0
   19.6354   -3.2606    0.0000 H   0  0  0  0  0  0  0  0  0  0  0  0
   17.8533   -3.1683    0.0000 H   0  0  0  0  0  0  0  0  0  0  0  0
   18.4542   -0.1144    0.0000 H   0  0  0  0  0  0  0  0  0  0  0  0
   16.6721   -0.0220    0.0000 H   0  0  0  0  0  0  0  0  0  0  0  0
   15.7080   -0.0310    0.0000 H   0  0  0  0  0  0  0  0  0  0  0  0
   13.9279   -0.1566    0.0000 H   0  0  0  0  0  0  0  0  0  0  0  0
   14.5857   -3.1987    0.0000 H   0  0  0  0  0  0  0  0  0  0  0  0
   12.8057   -3.3243    0.0000 H   0  0  0  0  0  0  0  0  0  0  0  0
   11.8415   -3.3333    0.0000 H   0  0  0  0  0  0  0  0  0  0  0  0
   10.2077   -3.3486    0.0000 H   0  0  0  0  0  0  0  0  0  0  0  0
   10.6603   -0.1871    0.0000 H   0  0  0  0  0  0  0  0  0  0  0  0
    8.7320   -0.2051    0.0000 H   0  0  0  0  0  0  0  0  0  0  0  0
    7.0949    0.1306    0.0000 H   0  0  0  0  0  0  0  0  0  0  0  0
    5.2908   -0.7268    0.0000 H   0  0  0  0  0  0  0  0  0  0  0  0
    7.3180   -4.6762    0.0000 H   0  0  0  0  0  0  0  0  0  0  0  0
    5.6023   -4.1854    0.0000 H   0  0  0  0  0  0  0  0  0  0  0  0
   10.7385   -4.0448    0.0000 H   0  0  0  0  0  0  0  0  0  0  0  0
    8.7415   -5.5515    0.0000 H   0  0  0  0  0  0  0  0  0  0  0  0
    3.8672    0.1486    0.0000 H   0  0  0  0  0  0  0  0  0  0  0  0
    2.0616   -0.0495    0.0000 H   0  0  0  0  0  0  0  0  0  0  0  0
    2.4328   -4.4446    0.0000 H   0  0  0  0  0  0  0  0  0  0  0  0
    1.0543   -3.5676    0.0000 H   0  0  0  0  0  0  0  0  0  0  0  0
    5.3731   -2.9171    0.0000 H   0  0  0  0  0  0  0  0  0  0  0  0
    4.2477   -1.7325    0.0000 H   0  0  0  0  0  0  0  0  0  0  0  0
    6.4303   -6.2474    0.0000 H   0  0  0  0  0  0  0  0  0  0  0  0
    7.1514   -3.9650    0.0000 H   0  0  0  0  0  0  0  0  0  0  0  0
    0.8403    1.2694    0.0000 H   0  0  0  0  0  0  0  0  0  0  0  0
   -1.0928    1.7724    0.0000 H   0  0  0  0  0  0  0  0  0  0  0  0
   -2.2472   -2.4846    0.0000 H   0  0  0  0  0  0  0  0  0  0  0  0
   -3.0583   -0.8951    0.0000 H   0  0  0  0  0  0  0  0  0  0  0  0
    0.5545   -0.6284    0.0000 H   0  0  0  0  0  0  0  0  0  0  0  0
    0.8299   -4.4115    0.0000 H   0  0  0  0  0  0  0  0  0  0  0  0
   -0.7586   -4.7939    0.0000 H   0  0  0  0  0  0  0  0  0  0  0  0
   -1.7573   -3.3151    0.0000 H   0  0  0  0  0  0  0  0  0  0  0  0
    1.7330   -3.5310    0.0000 H   0  0  0  0  0  0  0  0  0  0  0  0
    2.7041   -2.2171    0.0000 H   0  0  0  0  0  0  0  0  0  0  0  0
    1.0102   -0.6393    0.0000 H   0  0  0  0  0  0  0  0  0  0  0  0
   -1.5374    3.1948    0.0000 H   0  0  0  0  0  0  0  0  0  0  0  0
   -2.8193    2.0773    0.0000 H   0  0  0  0  0  0  0  0  0  0  0  0
   -3.2840    0.7322    0.0000 H   0  0  0  0  0  0  0  0  0  0  0  0
   -3.1800    0.1549    0.0000 H   0  0  0  0  0  0  0  0  0  0  0  0
   -3.7248   -0.7898    0.0000 H   0  0  0  0  0  0  0  0  0  0  0  0
   -3.7955   -0.9420    0.0000 H   0  0  0  0  0  0  0  0  0  0  0  0
   -4.4387   -2.2114    0.0000 H   0  0  0  0  0  0  0  0  0  0  0  0
   -4.7346   -2.6211    0.0000 H   0  0  0  0  0  0  0  0  0  0  0  0
   -5.5653   -3.5673    0.0000 H   0  0  0  0  0  0  0  0  0  0  0  0
   -5.9334   -3.9137    0.0000 H   0  0  0  0  0  0  0  0  0  0  0  0
   -6.9282   -4.6856    0.0000 H   0  0  0  0  0  0  0  0  0  0  0  0
   -7.3551   -4.9560    0.0000 H   0  0  0  0  0  0  0  0  0  0  0  0
   -8.6612   -5.5211    0.0000 H   0  0  0  0  0  0  0  0  0  0  0  0
   -9.5155   -6.0170    0.0000 H   0  0  0  0  0  0  0  0  0  0  0  0
   -1.5578    3.6922    0.0000 H   0  0  0  0  0  0  0  0  0  0  0  0
   -1.9578    5.2763    0.0000 H   0  0  0  0  0  0  0  0  0  0  0  0
   -3.7314    5.4731    0.0000 H   0  0  0  0  0  0  0  0  0  0  0  0
   -3.4706    6.6833    0.0000 H   0  0  0  0  0  0  0  0  0  0  0  0
   -4.1484    7.4466    0.0000 H   0  0  0  0  0  0  0  0  0  0  0  0
   -4.9755   10.4219    0.0000 H   0  0  0  0  0  0  0  0  0  0  0  0
   -6.3919    9.6076    0.0000 H   0  0  0  0  0  0  0  0  0  0  0  0
   -2.1066    8.7643    0.0000 H   0  0  0  0  0  0  0  0  0  0  0  0
   -3.2839    7.6314    0.0000 H   0  0  0  0  0  0  0  0  0  0  0  0
   -2.8978   11.9818    0.0000 H   0  0  0  0  0  0  0  0  0  0  0  0
   -4.3876   10.9996    0.0000 H   0  0  0  0  0  0  0  0  0  0  0  0
   -0.5893    9.4646    0.0000 H   0  0  0  0  0  0  0  0  0  0  0  0
    1.1764   13.6038    0.0000 H   0  0  0  0  0  0  0  0  0  0  0  0
    1.4884   11.0245    0.0000 H   0  0  0  0  0  0  0  0  0  0  0  0
   -1.2133   14.6232    0.0000 H   0  0  0  0  0  0  0  0  0  0  0  0
   -3.2910   13.0633    0.0000 H   0  0  0  0  0  0  0  0  0  0  0  0
   -6.9739   10.8759    0.0000 H   0  0  0  0  0  0  0  0  0  0  0  0
   -7.9081   11.1968    0.0000 H   0  0  0  0  0  0  0  0  0  0  0  0
   -9.9496   13.1789    0.0000 H   0  0  0  0  0  0  0  0  0  0  0  0
  -10.8654   11.6473    0.0000 H   0  0  0  0  0  0  0  0  0  0  0  0
   -8.4681   14.2298    0.0000 H   0  0  0  0  0  0  0  0  0  0  0  0
  -11.8579   12.3873    0.0000 H   0  0  0  0  0  0  0  0  0  0  0  0
  -13.0001   12.1646    0.0000 H   0  0  0  0  0  0  0  0  0  0  0  0
  -15.7891   12.7282    0.0000 H   0  0  0  0  0  0  0  0  0  0  0  0
  -15.7315   10.9447    0.0000 H   0  0  0  0  0  0  0  0  0  0  0  0
  -11.4970   12.6487    0.0000 H   0  0  0  0  0  0  0  0  0  0  0  0
  -10.7151   15.3760    0.0000 H   0  0  0  0  0  0  0  0  0  0  0  0
  -12.7362   17.5931    0.0000 H   0  0  0  0  0  0  0  0  0  0  0  0
  -15.6668   16.9513    0.0000 H   0  0  0  0  0  0  0  0  0  0  0  0
  -16.5762   14.0925    0.0000 H   0  0  0  0  0  0  0  0  0  0  0  0
  -16.9665   11.0307    0.0000 H   0  0  0  0  0  0  0  0  0  0  0  0
  -17.8070   10.2258    0.0000 H   0  0  0  0  0  0  0  0  0  0  0  0
  -20.4580    9.1921    0.0000 H   0  0  0  0  0  0  0  0  0  0  0  0
  -19.4453    7.7229    0.0000 H   0  0  0  0  0  0  0  0  0  0  0  0
  -16.8042   11.4456    0.0000 H   0  0  0  0  0  0  0  0  0  0  0  0
  -17.6210   14.1628    0.0000 H   0  0  0  0  0  0  0  0  0  0  0  0
  -20.5199   14.9352    0.0000 H   0  0  0  0  0  0  0  0  0  0  0  0
  -22.6382   12.8109    0.0000 H   0  0  0  0  0  0  0  0  0  0  0  0
  -21.8577    9.9142    0.0000 H   0  0  0  0  0  0  0  0  0  0  0  0
  -20.6179    6.9663    0.0000 H   0  0  0  0  0  0  0  0  0  0  0  0
  -20.8026    5.9959    0.0000 H   0  0  0  0  0  0  0  0  0  0  0  0
  -22.2969    5.4688    0.0000 H   0  0  0  0  0  0  0  0  0  0  0  0
  -22.4739    3.6931    0.0000 H   0  0  0  0  0  0  0  0  0  0  0  0
  -20.8276    3.0046    0.0000 H   0  0  0  0  0  0  0  0  0  0  0  0
  -21.4189    1.9169    0.0000 H   0  0  0  0  0  0  0  0  0  0  0  0
  -20.9835    0.9936    0.0000 H   0  0  0  0  0  0  0  0  0  0  0  0
  -21.0282   -2.0943    0.0000 H   0  0  0  0  0  0  0  0  0  0  0  0
  -19.4397   -1.7119    0.0000 H   0  0  0  0  0  0  0  0  0  0  0  0
  -21.8651    1.0599    0.0000 H   0  0  0  0  0  0  0  0  0  0  0  0
  -24.4599   -1.5269    0.0000 H   0  0  0  0  0  0  0  0  0  0  0  0
  -23.4612   -3.0056    0.0000 H   0  0  0  0  0  0  0  0  0  0  0  0
  -21.7550   -2.4829    0.0000 H   0  0  0  0  0  0  0  0  0  0  0  0
  -24.6891   -0.2944    0.0000 H   0  0  0  0  0  0  0  0  0  0  0  0
  -24.2887    1.4445    0.0000 H   0  0  0  0  0  0  0  0  0  0  0  0
  -22.3605    1.4625    0.0000 H   0  0  0  0  0  0  0  0  0  0  0  0
  -19.3490   -2.9466    0.0000 H   0  0  0  0  0  0  0  0  0  0  0  0
  -15.6542   -5.4754    0.0000 H   0  0  0  0  0  0  0  0  0  0  0  0
  -16.8324   -5.0315    0.0000 H   0  0  0  0  0  0  0  0  0  0  0  0
  -14.1636   -6.0311    0.0000 H   0  0  0  0  0  0  0  0  0  0  0  0
  -15.2251   -5.7814    0.0000 H   0  0  0  0  0  0  0  0  0  0  0  0
  -12.2461   -6.1878    0.0000 H   0  0  0  0  0  0  0  0  0  0  0  0
  -13.6680   -6.1300    0.0000 H   0  0  0  0  0  0  0  0  0  0  0  0
  -11.2706   -6.3434    0.0000 H   0  0  0  0  0  0  0  0  0  0  0  0
  -19.0518   -5.0303    0.0000 H   0  0  0  0  0  0  0  0  0  0  0  0
  -19.9326   -3.6542    0.0000 H   0  0  0  0  0  0  0  0  0  0  0  0
  -19.0339   -2.2898    0.0000 H   0  0  0  0  0  0  0  0  0  0  0  0
  -19.8763   -4.4982    0.0000 H   0  0  0  0  0  0  0  0  0  0  0  0
  -17.2523   -6.6465    0.0000 H   0  0  0  0  0  0  0  0  0  0  0  0
  -17.5831   -9.4461    0.0000 H   0  0  0  0  0  0  0  0  0  0  0  0
  -17.0277   -7.5995    0.0000 H   0  0  0  0  0  0  0  0  0  0  0  0
  -19.3547   -9.9754    0.0000 H   0  0  0  0  0  0  0  0  0  0  0  0
  -22.0261   -7.9463    0.0000 H   0  0  0  0  0  0  0  0  0  0  0  0
  -24.6160   -9.0597    0.0000 H   0  0  0  0  0  0  0  0  0  0  0  0
  -23.0036   -8.0020    0.0000 H   0  0  0  0  0  0  0  0  0  0  0  0
  -24.0304  -12.3209    0.0000 H   0  0  0  0  0  0  0  0  0  0  0  0
  -22.7890  -11.8872    0.0000 H   0  0  0  0  0  0  0  0  0  0  0  0
  -27.5244  -12.3416    0.0000 H   0  0  0  0  0  0  0  0  0  0  0  0
  -25.7520  -13.7727    0.0000 H   0  0  0  0  0  0  0  0  0  0  0  0
  -24.6195  -10.9087    0.0000 H   0  0  0  0  0  0  0  0  0  0  0  0
  -21.9145  -12.8927    0.0000 H   0  0  0  0  0  0  0  0  0  0  0  0
  -21.7724  -13.6820    0.0000 H   0  0  0  0  0  0  0  0  0  0  0  0
  -23.9967  -16.9571    0.0000 H   0  0  0  0  0  0  0  0  0  0  0  0
  -25.5383  -16.0584    0.0000 H   0  0  0  0  0  0  0  0  0  0  0  0
  -25.4756  -14.7449    0.0000 H   0  0  0  0  0  0  0  0  0  0  0  0
  -21.9011  -17.1523    0.0000 H   0  0  0  0  0  0  0  0  0  0  0  0
  -23.5408  -16.4482    0.0000 H   0  0  0  0  0  0  0  0  0  0  0  0
  -19.9250  -16.8612    0.0000 H   0  0  0  0  0  0  0  0  0  0  0  0
  -19.3696  -15.0145    0.0000 H   0  0  0  0  0  0  0  0  0  0  0  0
  -20.9112  -14.1159    0.0000 H   0  0  0  0  0  0  0  0  0  0  0  0
  1  2  1  0
  2  3  1  0
  3  4  2  0
  4  5  1  0
  5  6  2  0
  6  7  1  0
  7  8  2  0
  7  9  1  0
  9 10  1  0
 10 11  1  0
 11 12  2  0
  9 13  1  0
 13 14  1  0
 14 15  2  0
 15 16  1  0
 16 17  2  0
 17 18  1  0
 16 19  1  0
 14 20  1  0
 20 21  1  0
 21 22  2  0
 22 23  1  0
 23 24  2  0
 24 25  1  0
 25 26  2  0
 25 27  1  0
  1 28  2  0
  1 29  1  0
 29 30  1  0
 30 31  1  0
 31 32  1  0
 32 33  1  0
 33 34  1  0
 34 35  1  0
 35 36  1  0
 36 37  1  0
 37 38  1  0
 38 39  1  0
 39 40  1  0
 40 41  1  0
 41 42  1  0
 42 43  1  0
 43 44  1  0
 44 45  1  0
 45 46  1  0
 46 47  1  0
 47 48  1  0
 48 49  1  0
 49 50  1  0
 50 51  2  0
 50 52  1  0
 52 53  1  0
 53 54  1  0
 54 55  1  0
 55 56  1  0
 55 57  2  0
 53 58  1  0
 58 59  2  0
 58 60  1  0
 60 61  1  0
 61 62  1  0
 62 63  1  0
 63 64  1  0
 64 65  1  0
 64 66  2  0
 61 67  1  0
 67 68  2  0
 67 69  1  0
 69 70  1  0
 70 71  1  0
 71 72  1  0
 72 73  1  0
 72 74  1  0
 70 75  1  0
 75 76  2  0
 75 77  1  0
 78 77  1  6
 78 79  1  0
 79 80  1  0
 80 81  1  0
 81 82  1  0
 82 83  1  0
 83 84  1  0
 84 85  1  0
 78 86  1  0
 78 87  1  0
 87 88  2  0
 87 89  1  0
 89 90  1  0
 90 91  1  0
 91 92  1  0
 92 93  1  0
 93 94  1  0
 94 95  1  0
 95 96  2  3
 95 97  1  0
 90 98  1  0
 98 99  2  0
 98100  1  0
100101  1  0
101102  1  0
102103  1  0
101104  1  0
104105  2  0
104106  1  0
106107  1  0
107108  1  0
108109  1  0
109110  2  0
110111  1  0
111112  2  0
112113  1  0
113114  2  0
107115  1  0
115116  2  0
115117  1  0
117118  1  0
118119  1  0
119120  1  0
120121  2  0
121122  1  0
122123  2  0
123124  1  0
124125  2  0
118126  1  0
126127  2  0
126128  1  0
128129  1  0
129130  1  0
129131  1  0
131132  2  0
131133  1  0
133134  1  0
134135  1  0
135136  1  0
136137  1  0
136138  1  0
134139  1  0
139140  2  0
139141  1  0
141142  1  0
142143  1  0
143144  1  0
144145  1  0
145146  1  0
142147  1  0
142148  1  1
148149  2  0
148150  1  0
150151  1  0
151152  1  0
152153  1  0
153154  2  0
153155  1  0
151156  1  0
156157  2  0
156158  1  0
158159  1  0
159160  1  0
160161  1  0
161162  1  0
162163  1  0
162164  2  0
159165  1  0
165166  2  0
165167  1  0
167168  1  0
168169  1  0
169170  1  0
169171  1  0
171172  1  0
168173  1  0
173174  2  0
173175  1  0
  8  3  1  0
114109  1  0
125120  1  0
 11  6  1  0
 18 13  2  0
 85146  2  0
 22  9  1  0
 26 21  1  0
  2176  1  0
  4177  1  0
  5178  1  0
  8179  1  0
 15180  1  0
 17181  1  0
 18182  1  0
 19183  1  0
 23184  1  0
 24185  1  0
 26186  1  0
 27187  1  0
 29188  1  0
 30189  1  0
 30190  1  0
 31191  1  0
 31192  1  0
 33193  1  0
 33194  1  0
 34195  1  0
 34196  1  0
 36197  1  0
 36198  1  0
 37199  1  0
 37200  1  0
 39201  1  0
 39202  1  0
 40203  1  0
 40204  1  0
 42205  1  0
 42206  1  0
 43207  1  0
 43208  1  0
 45209  1  0
 45210  1  0
 46211  1  0
 46212  1  0
 48213  1  0
 48214  1  0
 49215  1  0
 49216  1  0
 52217  1  0
 53218  1  1
 54219  1  0
 54220  1  0
 56221  1  0
 56222  1  0
 60223  1  0
 61224  1  1
 62225  1  0
 62226  1  0
 63227  1  0
 63228  1  0
 65229  1  0
 65230  1  0
 69231  1  0
 70232  1  1
 71233  1  0
 71234  1  0
 72235  1  0
 73236  1  0
 73237  1  0
 73238  1  0
 74239  1  0
 74240  1  0
 74241  1  0
 77242  1  0
 79243  1  0
 79244  1  0
 80245  1  0
 80246  1  0
 81247  1  0
 81248  1  0
 82249  1  0
 82250  1  0
 83251  1  0
 83252  1  0
 84253  1  0
 84254  1  0
 85255  1  0
 86256  1  0
 86257  1  0
 86258  1  0
 89259  1  0
 90260  1  6
 91261  1  0
 91262  1  0
 92263  1  0
 92264  1  0
 93265  1  0
 93266  1  0
 94267  1  0
 96268  1  0
 96269  1  0
 97270  1  0
 97271  1  0
100272  1  0
101273  1  6
102274  1  0
102275  1  0
103276  1  0
106277  1  0
107278  1  6
108279  1  0
108280  1  0
110281  1  0
111282  1  0
112283  1  0
113284  1  0
114285  1  0
117286  1  0
118287  1  6
119288  1  0
119289  1  0
121290  1  0
122291  1  0
123292  1  0
124293  1  0
125294  1  0
128295  1  0
129296  1  6
130297  1  0
130298  1  0
130299  1  0
133300  1  0
134301  1  6
135302  1  0
135303  1  0
136304  1  0
137305  1  0
137306  1  0
137307  1  0
138308  1  0
138309  1  0
138310  1  0
141311  1  0
143312  1  0
143313  1  0
144314  1  0
144315  1  0
145316  1  0
145317  1  0
146318  1  0
147319  1  0
147320  1  0
147321  1  0
150322  1  0
151323  1  1
152324  1  0
152325  1  0
158326  1  0
159327  1  6
160328  1  0
160329  1  0
161330  1  0
161331  1  0
163332  1  0
163333  1  0
167334  1  0
168335  1  1
169336  1  1
170337  1  0
170338  1  0
170339  1  0
171340  1  0
171341  1  0
172342  1  0
172343  1  0
172344  1  0
M  CHG  3  96   1 155  -1 175  -1
M  END
