
     RDKit          2D

319325  0  0  0  0  0  0  0  0999 V2000
   20.3746   -3.3017    0.0000 C   0  0  0  0  0  0  0  0  0  0  0  0
   21.7155   -2.6295    0.0000 N   0  0  0  0  0  0  0  0  0  0  0  0
   22.9682   -3.4547    0.0000 C   0  0  0  0  0  0  0  0  0  0  0  0
   22.8798   -4.9521    0.0000 C   0  0  0  0  0  0  0  0  0  0  0  0
   24.1325   -5.7773    0.0000 C   0  0  0  0  0  0  0  0  0  0  0  0
   25.4734   -5.1051    0.0000 C   0  0  0  0  0  0  0  0  0  0  0  0
   25.5617   -3.6077    0.0000 C   0  0  0  0  0  0  0  0  0  0  0  0
   24.3091   -2.7825    0.0000 C   0  0  0  0  0  0  0  0  0  0  0  0
   27.0131   -3.2290    0.0000 C   0  0  0  0  0  0  0  0  0  0  0  0
   27.8218   -4.4923    0.0000 O   0  0  0  0  0  0  0  0  0  0  0  0
   26.8702   -5.6518    0.0000 C   0  0  0  0  0  0  0  0  0  0  0  0
   27.2489   -7.1032    0.0000 O   0  0  0  0  0  0  0  0  0  0  0  0
   28.4962   -3.0040    0.0000 C   0  0  0  0  0  0  0  0  0  0  0  0
   29.0429   -1.6072    0.0000 C   0  0  0  0  0  0  0  0  0  0  0  0
   30.5259   -1.3823    0.0000 C   0  0  0  0  0  0  0  0  0  0  0  0
   31.4622   -2.5542    0.0000 C   0  0  0  0  0  0  0  0  0  0  0  0
   30.9155   -3.9510    0.0000 C   0  0  0  0  0  0  0  0  0  0  0  0
   29.4325   -4.1759    0.0000 C   0  0  0  0  0  0  0  0  0  0  0  0
   32.9453   -2.3292    0.0000 O   0  0  0  0  0  0  0  0  0  0  0  0
   28.1066   -0.4353    0.0000 O   0  0  0  0  0  0  0  0  0  0  0  0
   26.6235   -0.6603    0.0000 C   0  0  0  0  0  0  0  0  0  0  0  0
   26.0768   -2.0571    0.0000 C   0  0  0  0  0  0  0  0  0  0  0  0
   24.8489   -1.6302    0.0000 C   0  0  0  0  0  0  0  0  0  0  0  0
   24.3495   -1.0052    0.0000 C   0  0  0  0  0  0  0  0  0  0  0  0
   24.6411   -0.2602    0.0000 C   0  0  0  0  0  0  0  0  0  0  0  0
   25.4321   -0.1402    0.0000 C   0  0  0  0  0  0  0  0  0  0  0  0
   23.2679    1.4586    0.0000 O   0  0  0  0  0  0  0  0  0  0  0  0
   20.2863   -4.7991    0.0000 S   0  0  0  0  0  0  0  0  0  0  0  0
   19.1220   -2.4765    0.0000 N   0  0  0  0  0  0  0  0  0  0  0  0
   17.7810   -3.1487    0.0000 C   0  0  0  0  0  0  0  0  0  0  0  0
   16.5284   -2.3236    0.0000 C   0  0  0  0  0  0  0  0  0  0  0  0
   15.1875   -2.9958    0.0000 C   0  0  0  0  0  0  0  0  0  0  0  0
   15.3345   -3.7793    0.0000 O   0  0  0  0  0  0  0  0  0  0  0  0
   13.9348   -2.1706    0.0000 N   0  0  0  0  0  0  0  0  0  0  0  0
   12.5939   -2.8428    0.0000 C   0  0  0  0  0  0  0  0  0  0  0  0
   13.4887   -4.0466    0.0000 C   0  0  0  0  0  0  0  0  0  0  0  0
   14.9787   -3.8736    0.0000 C   0  0  0  0  0  0  0  0  0  0  0  0
   15.8736   -5.0774    0.0000 N   0  0  0  0  0  0  0  0  0  0  0  0
   15.8893   -2.6816    0.0000 O   0  0  0  0  0  0  0  0  0  0  0  0
   11.1039   -3.0158    0.0000 C   0  0  0  0  0  0  0  0  0  0  0  0
   10.8596   -4.4958    0.0000 O   0  0  0  0  0  0  0  0  0  0  0  0
   10.2091   -1.8120    0.0000 N   0  0  0  0  0  0  0  0  0  0  0  0
    8.7191   -1.9850    0.0000 C   0  0  0  0  0  0  0  0  0  0  0  0
    9.1482   -3.4223    0.0000 C   0  0  0  0  0  0  0  0  0  0  0  0
   10.6075   -3.7693    0.0000 C   0  0  0  0  0  0  0  0  0  0  0  0
   11.0367   -5.2066    0.0000 C   0  0  0  0  0  0  0  0  0  0  0  0
   12.4960   -5.5536    0.0000 C   0  0  0  0  0  0  0  0  0  0  0  0
   12.9251   -6.9909    0.0000 N   0  0  0  0  0  0  0  0  0  0  0  0
    7.2598   -1.6380    0.0000 C   0  0  0  0  0  0  0  0  0  0  0  0
    6.5240   -2.9452    0.0000 O   0  0  0  0  0  0  0  0  0  0  0  0
    6.8306   -0.2007    0.0000 N   0  0  0  0  0  0  0  0  0  0  0  0
    5.3713    0.1463    0.0000 C   0  0  0  0  0  0  0  0  0  0  0  0
    5.2830   -1.3511    0.0000 C   0  0  0  0  0  0  0  0  0  0  0  0
    6.5356   -2.1763    0.0000 C   0  0  0  0  0  0  0  0  0  0  0  0
    6.4473   -3.6737    0.0000 C   0  0  0  0  0  0  0  0  0  0  0  0
    7.9949   -2.5233    0.0000 C   0  0  0  0  0  0  0  0  0  0  0  0
    4.1187    0.9715    0.0000 C   0  0  0  0  0  0  0  0  0  0  0  0
    2.9802   -0.0052    0.0000 O   0  0  0  0  0  0  0  0  0  0  0  0
    4.2070    2.4689    0.0000 N   0  0  0  0  0  0  0  0  0  0  0  0
    2.9544    3.2941    0.0000 C   0  0  0  0  0  0  0  0  0  0  0  0
    2.7713    1.8053    0.0000 C   0  0  0  0  0  0  0  0  0  0  0  0
    2.3097    0.3781    0.0000 C   0  0  0  0  0  0  0  0  0  0  0  0
    1.5864   -0.9360    0.0000 C   0  0  0  0  0  0  0  0  0  0  0  0
    0.6274   -2.0895    0.0000 C   0  0  0  0  0  0  0  0  0  0  0  0
   -0.5325   -3.0406    0.0000 C   0  0  0  0  0  0  0  0  0  0  0  0
   -1.8514   -3.7550    0.0000 C   0  0  0  0  0  0  0  0  0  0  0  0
   -3.2817   -4.2069    0.0000 C   0  0  0  0  0  0  0  0  0  0  0  0
    4.2500    4.0500    0.0000 C   0  0  0  0  0  0  0  0  0  0  0  0
    2.8524    4.7906    0.0000 C   0  0  0  0  0  0  0  0  0  0  0  0
    4.2917    5.2129    0.0000 O   0  0  0  0  0  0  0  0  0  0  0  0
    2.4691    6.2408    0.0000 N   0  0  0  0  0  0  0  0  0  0  0  0
    1.8183    7.5922    0.0000 C   0  0  0  0  0  0  0  0  0  0  0  0
    2.4995    8.9286    0.0000 C   0  0  0  0  0  0  0  0  0  0  0  0
    3.9975    9.0068    0.0000 C   0  0  0  0  0  0  0  0  0  0  0  0
    4.6787   10.3431    0.0000 C   0  0  0  0  0  0  0  0  0  0  0  0
    6.1767   10.4213    0.0000 N   0  0  0  0  0  0  0  0  0  0  0  0
    6.8580   11.7577    0.0000 C   0  0  0  0  0  0  0  0  0  0  0  0
    8.3559   11.8359    0.0000 N   0  0  0  0  0  0  0  0  0  0  0  0
    6.0413   13.0159    0.0000 N   0  0  0  0  0  0  0  0  0  0  0  0
    0.9234    8.7961    0.0000 C   0  0  0  0  0  0  0  0  0  0  0  0
    1.9059    9.9295    0.0000 O   0  0  0  0  0  0  0  0  0  0  0  0
   -0.1831    9.8088    0.0000 N   0  0  0  0  0  0  0  0  0  0  0  0
   -1.4613   10.5938    0.0000 C   0  0  0  0  0  0  0  0  0  0  0  0
   -1.6107   12.0864    0.0000 C   0  0  0  0  0  0  0  0  0  0  0  0
   -0.3928   12.9620    0.0000 O   0  0  0  0  0  0  0  0  0  0  0  0
   -2.8649   11.1228    0.0000 C   0  0  0  0  0  0  0  0  0  0  0  0
   -2.6512   12.6075    0.0000 O   0  0  0  0  0  0  0  0  0  0  0  0
   -4.3433   11.3765    0.0000 N   0  0  0  0  0  0  0  0  0  0  0  0
   -5.8430   11.3459    0.0000 C   0  0  0  0  0  0  0  0  0  0  0  0
   -6.7756   12.5208    0.0000 C   0  0  0  0  0  0  0  0  0  0  0  0
   -6.2244   13.9158    0.0000 C   0  0  0  0  0  0  0  0  0  0  0  0
   -4.7407   14.1361    0.0000 C   0  0  0  0  0  0  0  0  0  0  0  0
   -4.1895   15.5311    0.0000 C   0  0  0  0  0  0  0  0  0  0  0  0
   -5.1221   16.7060    0.0000 C   0  0  0  0  0  0  0  0  0  0  0  0
   -6.6059   16.4858    0.0000 C   0  0  0  0  0  0  0  0  0  0  0  0
   -7.1570   15.0907    0.0000 C   0  0  0  0  0  0  0  0  0  0  0  0
   -7.3098   11.0320    0.0000 C   0  0  0  0  0  0  0  0  0  0  0  0
   -7.9327   12.3966    0.0000 O   0  0  0  0  0  0  0  0  0  0  0  0
   -8.6907   10.4462    0.0000 N   0  0  0  0  0  0  0  0  0  0  0  0
   -9.9357    9.6097    0.0000 C   0  0  0  0  0  0  0  0  0  0  0  0
  -11.3554   10.0938    0.0000 C   0  0  0  0  0  0  0  0  0  0  0  0
  -11.6460   11.5654    0.0000 C   0  0  0  0  0  0  0  0  0  0  0  0
  -13.0657   12.0495    0.0000 C   0  0  0  0  0  0  0  0  0  0  0  0
  -13.3563   13.5211    0.0000 C   0  0  0  0  0  0  0  0  0  0  0  0
  -14.7760   14.0053    0.0000 N   0  0  0  0  0  0  0  0  0  0  0  0
  -11.0000    8.5526    0.0000 C   0  0  0  0  0  0  0  0  0  0  0  0
  -12.2617    9.3638    0.0000 O   0  0  0  0  0  0  0  0  0  0  0  0
  -11.8449    7.3132    0.0000 N   0  0  0  0  0  0  0  0  0  0  0  0
  -12.4401    5.9363    0.0000 C   0  0  0  0  0  0  0  0  0  0  0  0
  -13.8962    5.5761    0.0000 C   0  0  0  0  0  0  0  0  0  0  0  0
  -12.7639    4.4717    0.0000 C   0  0  0  0  0  0  0  0  0  0  0  0
  -14.2639    4.4720    0.0000 O   0  0  0  0  0  0  0  0  0  0  0  0
  -12.8046    2.9723    0.0000 N   0  0  0  0  0  0  0  0  0  0  0  0
  -12.5609    1.4922    0.0000 C   0  0  0  0  0  0  0  0  0  0  0  0
  -13.5911    0.4019    0.0000 C   0  0  0  0  0  0  0  0  0  0  0  0
  -15.0504    0.7489    0.0000 C   0  0  0  0  0  0  0  0  0  0  0  0
  -16.0805   -0.3414    0.0000 C   0  0  0  0  0  0  0  0  0  0  0  0
  -16.3030    1.5741    0.0000 C   0  0  0  0  0  0  0  0  0  0  0  0
  -12.0415    0.0850    0.0000 C   0  0  0  0  0  0  0  0  0  0  0  0
  -13.3035   -0.7257    0.0000 O   0  0  0  0  0  0  0  0  0  0  0  0
  -11.2651   -1.1985    0.0000 N   0  0  0  0  0  0  0  0  0  0  0  0
  -10.2599   -2.3118    0.0000 C   0  0  0  0  0  0  0  0  0  0  0  0
   -9.0621   -3.2148    0.0000 C   0  0  0  0  0  0  0  0  0  0  0  0
   -7.7151   -3.8747    0.0000 C   0  0  0  0  0  0  0  0  0  0  0  0
   -6.2675   -4.2679    0.0000 C   0  0  0  0  0  0  0  0  0  0  0  0
   -4.7717   -4.3799    0.0000 C   0  0  0  0  0  0  0  0  0  0  0  0
  -11.7038   -2.7181    0.0000 C   0  0  0  0  0  0  0  0  0  0  0  0
  -10.5370   -3.7860    0.0000 C   0  0  0  0  0  0  0  0  0  0  0  0
   -9.6692   -5.0094    0.0000 O   0  0  0  0  0  0  0  0  0  0  0  0
  -11.9523   -4.2830    0.0000 N   0  0  0  0  0  0  0  0  0  0  0  0
  -12.2295   -5.7572    0.0000 C   0  0  0  0  0  0  0  0  0  0  0  0
  -11.9857   -7.2372    0.0000 C   0  0  0  0  0  0  0  0  0  0  0  0
  -13.1456   -8.1884    0.0000 C   0  0  0  0  0  0  0  0  0  0  0  0
  -12.9019   -9.6684    0.0000 C   0  0  0  0  0  0  0  0  0  0  0  0
  -14.0618  -10.6195    0.0000 C   0  0  0  0  0  0  0  0  0  0  0  0
  -13.8180  -12.0996    0.0000 N   0  0  0  0  0  0  0  0  0  0  0  0
  -13.6447   -6.2542    0.0000 C   0  0  0  0  0  0  0  0  0  0  0  0
  -14.7828   -5.2771    0.0000 O   0  0  0  0  0  0  0  0  0  0  0  0
  -13.9219   -7.7284    0.0000 N   0  0  0  0  0  0  0  0  0  0  0  0
  -15.3371   -8.2254    0.0000 C   0  0  0  0  0  0  0  0  0  0  0  0
  -16.8370   -8.2085    0.0000 C   0  0  0  0  0  0  0  0  0  0  0  0
  -17.5723   -6.9010    0.0000 C   0  0  0  0  0  0  0  0  0  0  0  0
  -19.0722   -6.8841    0.0000 C   0  0  0  0  0  0  0  0  0  0  0  0
  -19.8074   -5.5766    0.0000 N   0  0  0  0  0  0  0  0  0  0  0  0
  -19.8368   -8.1745    0.0000 O   0  0  0  0  0  0  0  0  0  0  0  0
  -15.6143   -9.6996    0.0000 C   0  0  0  0  0  0  0  0  0  0  0  0
  -14.7465  -10.9231    0.0000 O   0  0  0  0  0  0  0  0  0  0  0  0
  -17.0296  -10.1967    0.0000 N   0  0  0  0  0  0  0  0  0  0  0  0
  -17.3067  -11.6708    0.0000 C   0  0  0  0  0  0  0  0  0  0  0  0
  -17.0630  -13.1509    0.0000 C   0  0  0  0  0  0  0  0  0  0  0  0
  -18.3302  -13.9535    0.0000 C   0  0  0  0  0  0  0  0  0  0  0  0
  -16.3277  -14.4583    0.0000 C   0  0  0  0  0  0  0  0  0  0  0  0
  -17.0924  -15.7488    0.0000 C   0  0  0  0  0  0  0  0  0  0  0  0
  -18.7220  -12.1679    0.0000 C   0  0  0  0  0  0  0  0  0  0  0  0
  -19.1768  -13.5973    0.0000 O   0  0  0  0  0  0  0  0  0  0  0  0
  -19.8601  -11.1908    0.0000 O   0  0  0  0  0  0  0  0  0  0  0  0
   21.6207   -1.1325    0.0000 H   0  0  0  0  0  0  0  0  0  0  0  0
   21.5389   -5.6243    0.0000 H   0  0  0  0  0  0  0  0  0  0  0  0
   24.0441   -7.2747    0.0000 H   0  0  0  0  0  0  0  0  0  0  0  0
   24.0325   -1.3082    0.0000 H   0  0  0  0  0  0  0  0  0  0  0  0
   31.0727    0.0145    0.0000 H   0  0  0  0  0  0  0  0  0  0  0  0
   31.8518   -5.1229    0.0000 H   0  0  0  0  0  0  0  0  0  0  0  0
   28.8858   -5.5727    0.0000 H   0  0  0  0  0  0  0  0  0  0  0  0
   33.8816   -3.5011    0.0000 H   0  0  0  0  0  0  0  0  0  0  0  0
   24.0471   -3.6788    0.0000 H   0  0  0  0  0  0  0  0  0  0  0  0
   22.1581   -1.1526    0.0000 H   0  0  0  0  0  0  0  0  0  0  0  0
   26.2339    1.9084    0.0000 H   0  0  0  0  0  0  0  0  0  0  0  0
   23.8146    2.8554    0.0000 H   0  0  0  0  0  0  0  0  0  0  0  0
   19.2103   -0.9791    0.0000 H   0  0  0  0  0  0  0  0  0  0  0  0
   18.6759   -4.3526    0.0000 H   0  0  0  0  0  0  0  0  0  0  0  0
   16.8914   -4.3565    0.0000 H   0  0  0  0  0  0  0  0  0  0  0  0
   17.5586   -1.2333    0.0000 H   0  0  0  0  0  0  0  0  0  0  0  0
   15.6336   -1.1197    0.0000 H   0  0  0  0  0  0  0  0  0  0  0  0
   14.0232   -0.6732    0.0000 H   0  0  0  0  0  0  0  0  0  0  0  0
   12.1647   -1.4055    0.0000 H   0  0  0  0  0  0  0  0  0  0  0  0
   14.0899   -5.4209    0.0000 H   0  0  0  0  0  0  0  0  0  0  0  0
   12.0759   -4.5504    0.0000 H   0  0  0  0  0  0  0  0  0  0  0  0
   17.3735   -5.0873    0.0000 H   0  0  0  0  0  0  0  0  0  0  0  0
   15.2784   -6.4543    0.0000 H   0  0  0  0  0  0  0  0  0  0  0  0
   10.8042   -0.4351    0.0000 H   0  0  0  0  0  0  0  0  0  0  0  0
    8.9893   -0.5096    0.0000 H   0  0  0  0  0  0  0  0  0  0  0  0
    8.8780   -4.8978    0.0000 H   0  0  0  0  0  0  0  0  0  0  0  0
    7.7444   -3.9508    0.0000 H   0  0  0  0  0  0  0  0  0  0  0  0
   12.0653   -3.4159    0.0000 H   0  0  0  0  0  0  0  0  0  0  0  0
   11.0556   -2.3378    0.0000 H   0  0  0  0  0  0  0  0  0  0  0  0
   10.7665   -6.6821    0.0000 H   0  0  0  0  0  0  0  0  0  0  0  0
    9.5789   -5.5600    0.0000 H   0  0  0  0  0  0  0  0  0  0  0  0
   13.9959   -5.5635    0.0000 H   0  0  0  0  0  0  0  0  0  0  0  0
   12.5843   -4.0562    0.0000 H   0  0  0  0  0  0  0  0  0  0  0  0
   14.3844   -7.3379    0.0000 H   0  0  0  0  0  0  0  0  0  0  0  0
   12.8368   -8.4883    0.0000 H   0  0  0  0  0  0  0  0  0  0  0  0
   11.4673   -7.3443    0.0000 H   0  0  0  0  0  0  0  0  0  0  0  0
    7.8608    0.8896    0.0000 H   0  0  0  0  0  0  0  0  0  0  0  0
    5.9664    1.5232    0.0000 H   0  0  0  0  0  0  0  0  0  0  0  0
    4.5244   -2.6452    0.0000 H   0  0  0  0  0  0  0  0  0  0  0  0
    3.8237   -1.0041    0.0000 H   0  0  0  0  0  0  0  0  0  0  0  0
    7.4462   -0.9843    0.0000 H   0  0  0  0  0  0  0  0  0  0  0  0
    7.4630   -4.7775    0.0000 H   0  0  0  0  0  0  0  0  0  0  0  0
    5.8521   -5.0506    0.0000 H   0  0  0  0  0  0  0  0  0  0  0  0
    4.9565   -3.5072    0.0000 H   0  0  0  0  0  0  0  0  0  0  0  0
    8.4241   -3.9606    0.0000 H   0  0  0  0  0  0  0  0  0  0  0  0
    9.4825   -2.7159    0.0000 H   0  0  0  0  0  0  0  0  0  0  0  0
    7.9000   -1.0263    0.0000 H   0  0  0  0  0  0  0  0  0  0  0  0
    5.6199    2.9726    0.0000 H   0  0  0  0  0  0  0  0  0  0  0  0
    4.2647    1.9451    0.0000 H   0  0  0  0  0  0  0  0  0  0  0  0
    3.7094    0.6349    0.0000 H   0  0  0  0  0  0  0  0  0  0  0  0
    3.7738    0.0518    0.0000 H   0  0  0  0  0  0  0  0  0  0  0  0
    3.1659   -0.8536    0.0000 H   0  0  0  0  0  0  0  0  0  0  0  0
    3.0850   -1.0006    0.0000 H   0  0  0  0  0  0  0  0  0  0  0  0
    2.3567   -2.2231    0.0000 H   0  0  0  0  0  0  0  0  0  0  0  0
    2.0336   -2.6118    0.0000 H   0  0  0  0  0  0  0  0  0  0  0  0
    1.1402   -3.4991    0.0000 H   0  0  0  0  0  0  0  0  0  0  0  0
    0.7494   -3.8196    0.0000 H   0  0  0  0  0  0  0  0  0  0  0  0
   -0.2957   -4.5218    0.0000 H   0  0  0  0  0  0  0  0  0  0  0  0
   -0.7401   -4.7625    0.0000 H   0  0  0  0  0  0  0  0  0  0  0  0
   -2.0817   -5.2372    0.0000 H   0  0  0  0  0  0  0  0  0  0  0  0
   -2.9678   -5.6737    0.0000 H   0  0  0  0  0  0  0  0  0  0  0  0
    5.6334    3.4702    0.0000 H   0  0  0  0  0  0  0  0  0  0  0  0
    5.3424    5.0779    0.0000 H   0  0  0  0  0  0  0  0  0  0  0  0
    3.5864    5.3952    0.0000 H   0  0  0  0  0  0  0  0  0  0  0  0
    3.9291    6.5848    0.0000 H   0  0  0  0  0  0  0  0  0  0  0  0
    3.3049    7.3925    0.0000 H   0  0  0  0  0  0  0  0  0  0  0  0
    2.6826   10.4174    0.0000 H   0  0  0  0  0  0  0  0  0  0  0  0
    1.2140    9.7015    0.0000 H   0  0  0  0  0  0  0  0  0  0  0  0
    5.4318    8.5679    0.0000 H   0  0  0  0  0  0  0  0  0  0  0  0
    4.1800    7.5179    0.0000 H   0  0  0  0  0  0  0  0  0  0  0  0
    4.8619   11.8319    0.0000 H   0  0  0  0  0  0  0  0  0  0  0  0
    3.3086   10.9536    0.0000 H   0  0  0  0  0  0  0  0  0  0  0  0
    6.9934    9.1632    0.0000 H   0  0  0  0  0  0  0  0  0  0  0  0
    9.0372   13.1723    0.0000 H   0  0  0  0  0  0  0  0  0  0  0  0
    9.1726   10.5777    0.0000 H   0  0  0  0  0  0  0  0  0  0  0  0
    6.7225   14.3523    0.0000 H   0  0  0  0  0  0  0  0  0  0  0  0
    4.5433   12.9377    0.0000 H   0  0  0  0  0  0  0  0  0  0  0  0
    0.7199   11.0066    0.0000 H   0  0  0  0  0  0  0  0  0  0  0  0
   -0.1903   11.3905    0.0000 H   0  0  0  0  0  0  0  0  0  0  0  0
   -2.0919   13.5071    0.0000 H   0  0  0  0  0  0  0  0  0  0  0  0
   -3.1100   12.0416    0.0000 H   0  0  0  0  0  0  0  0  0  0  0  0
   -0.5421   14.4546    0.0000 H   0  0  0  0  0  0  0  0  0  0  0  0
   -4.0497   12.8475    0.0000 H   0  0  0  0  0  0  0  0  0  0  0  0
   -5.2045   12.7032    0.0000 H   0  0  0  0  0  0  0  0  0  0  0  0
   -7.9485   13.4557    0.0000 H   0  0  0  0  0  0  0  0  0  0  0  0
   -8.0127   11.6725    0.0000 H   0  0  0  0  0  0  0  0  0  0  0  0
   -3.6718   13.0836    0.0000 H   0  0  0  0  0  0  0  0  0  0  0  0
   -2.7058   15.7514    0.0000 H   0  0  0  0  0  0  0  0  0  0  0  0
   -4.5710   18.1011    0.0000 H   0  0  0  0  0  0  0  0  0  0  0  0
   -7.5385   17.6606    0.0000 H   0  0  0  0  0  0  0  0  0  0  0  0
   -8.6408   14.8705    0.0000 H   0  0  0  0  0  0  0  0  0  0  0  0
   -9.2390   11.8424    0.0000 H   0  0  0  0  0  0  0  0  0  0  0  0
   -9.9496   11.1096    0.0000 H   0  0  0  0  0  0  0  0  0  0  0  0
  -12.8551   10.0632    0.0000 H   0  0  0  0  0  0  0  0  0  0  0  0
  -11.9375    8.7113    0.0000 H   0  0  0  0  0  0  0  0  0  0  0  0
  -11.2368   13.0085    0.0000 H   0  0  0  0  0  0  0  0  0  0  0  0
  -10.1983   11.9580    0.0000 H   0  0  0  0  0  0  0  0  0  0  0  0
  -14.5505   11.8363    0.0000 H   0  0  0  0  0  0  0  0  0  0  0  0
  -13.4750   10.6064    0.0000 H   0  0  0  0  0  0  0  0  0  0  0  0
  -13.1261   15.0033    0.0000 H   0  0  0  0  0  0  0  0  0  0  0  0
  -11.8715   13.7343    0.0000 H   0  0  0  0  0  0  0  0  0  0  0  0
  -15.0666   15.4769    0.0000 H   0  0  0  0  0  0  0  0  0  0  0  0
  -16.2757   13.9746    0.0000 H   0  0  0  0  0  0  0  0  0  0  0  0
  -15.1853   12.5622    0.0000 H   0  0  0  0  0  0  0  0  0  0  0  0
  -13.1590    8.0365    0.0000 H   0  0  0  0  0  0  0  0  0  0  0  0
  -13.4095    7.0810    0.0000 H   0  0  0  0  0  0  0  0  0  0  0  0
  -14.9362    6.6569    0.0000 H   0  0  0  0  0  0  0  0  0  0  0  0
  -15.2339    4.8975    0.0000 H   0  0  0  0  0  0  0  0  0  0  0  0
  -13.6384    4.0984    0.0000 H   0  0  0  0  0  0  0  0  0  0  0  0
  -14.3024    3.0535    0.0000 H   0  0  0  0  0  0  0  0  0  0  0  0
  -13.9311    2.1026    0.0000 H   0  0  0  0  0  0  0  0  0  0  0  0
  -14.1862   -0.9750    0.0000 H   0  0  0  0  0  0  0  0  0  0  0  0
  -12.5753   -0.7019    0.0000 H   0  0  0  0  0  0  0  0  0  0  0  0
  -14.8061    2.2289    0.0000 H   0  0  0  0  0  0  0  0  0  0  0  0
  -17.5713   -0.1749    0.0000 H   0  0  0  0  0  0  0  0  0  0  0  0
  -16.6757   -1.7183    0.0000 H   0  0  0  0  0  0  0  0  0  0  0  0
  -14.9378   -1.3131    0.0000 H   0  0  0  0  0  0  0  0  0  0  0  0
  -17.7159    1.0703    0.0000 H   0  0  0  0  0  0  0  0  0  0  0  0
  -17.1978    2.7779    0.0000 H   0  0  0  0  0  0  0  0  0  0  0  0
  -15.2728    2.6644    0.0000 H   0  0  0  0  0  0  0  0  0  0  0  0
  -12.5690   -1.9399    0.0000 H   0  0  0  0  0  0  0  0  0  0  0  0
   -9.0553   -4.7147    0.0000 H   0  0  0  0  0  0  0  0  0  0  0  0
  -10.2005   -4.1915    0.0000 H   0  0  0  0  0  0  0  0  0  0  0  0
   -7.6061   -5.3708    0.0000 H   0  0  0  0  0  0  0  0  0  0  0  0
   -8.6481   -5.0492    0.0000 H   0  0  0  0  0  0  0  0  0  0  0  0
   -5.7037   -5.6579    0.0000 H   0  0  0  0  0  0  0  0  0  0  0  0
   -7.1183   -5.5032    0.0000 H   0  0  0  0  0  0  0  0  0  0  0  0
   -4.7411   -5.8796    0.0000 H   0  0  0  0  0  0  0  0  0  0  0  0
  -12.4146   -4.0389    0.0000 H   0  0  0  0  0  0  0  0  0  0  0  0
  -13.1996   -2.6060    0.0000 H   0  0  0  0  0  0  0  0  0  0  0  0
  -12.2099   -1.3060    0.0000 H   0  0  0  0  0  0  0  0  0  0  0  0
  -13.2010   -3.4519    0.0000 H   0  0  0  0  0  0  0  0  0  0  0  0
  -10.7295   -5.7742    0.0000 H   0  0  0  0  0  0  0  0  0  0  0  0
  -11.0966   -8.4453    0.0000 H   0  0  0  0  0  0  0  0  0  0  0  0
  -10.5705   -6.7402    0.0000 H   0  0  0  0  0  0  0  0  0  0  0  0
  -14.6109   -8.5092    0.0000 H   0  0  0  0  0  0  0  0  0  0  0  0
  -14.4087   -7.3793    0.0000 H   0  0  0  0  0  0  0  0  0  0  0  0
  -12.0127  -10.8765    0.0000 H   0  0  0  0  0  0  0  0  0  0  0  0
  -11.4366   -9.3476    0.0000 H   0  0  0  0  0  0  0  0  0  0  0  0
  -15.4059  -11.2854    0.0000 H   0  0  0  0  0  0  0  0  0  0  0  0
  -14.9509   -9.4115    0.0000 H   0  0  0  0  0  0  0  0  0  0  0  0
  -14.9779  -13.0507    0.0000 H   0  0  0  0  0  0  0  0  0  0  0  0
  -13.0828  -13.4070    0.0000 H   0  0  0  0  0  0  0  0  0  0  0  0
  -12.3527  -11.7788    0.0000 H   0  0  0  0  0  0  0  0  0  0  0  0
  -13.0541   -8.9519    0.0000 H   0  0  0  0  0  0  0  0  0  0  0  0
  -15.3986   -6.7267    0.0000 H   0  0  0  0  0  0  0  0  0  0  0  0
  -18.3023   -8.5293    0.0000 H   0  0  0  0  0  0  0  0  0  0  0  0
  -16.9587   -9.7035    0.0000 H   0  0  0  0  0  0  0  0  0  0  0  0
  -17.8160   -5.4210    0.0000 H   0  0  0  0  0  0  0  0  0  0  0  0
  -16.2282   -6.2352    0.0000 H   0  0  0  0  0  0  0  0  0  0  0  0
  -21.3073   -5.5596    0.0000 H   0  0  0  0  0  0  0  0  0  0  0  0
  -19.0428   -4.2861    0.0000 H   0  0  0  0  0  0  0  0  0  0  0  0
  -18.2783   -9.3656    0.0000 H   0  0  0  0  0  0  0  0  0  0  0  0
  -15.8201  -11.8705    0.0000 H   0  0  0  0  0  0  0  0  0  0  0  0
  -15.7189  -12.4850    0.0000 H   0  0  0  0  0  0  0  0  0  0  0  0
  -18.1803  -15.6127    0.0000 H   0  0  0  0  0  0  0  0  0  0  0  0
  -19.6381  -14.5991    0.0000 H   0  0  0  0  0  0  0  0  0  0  0  0
  -19.3779  -13.1450    0.0000 H   0  0  0  0  0  0  0  0  0  0  0  0
  -15.1897  -15.4355    0.0000 H   0  0  0  0  0  0  0  0  0  0  0  0
  -15.0605  -13.6557    0.0000 H   0  0  0  0  0  0  0  0  0  0  0  0
  -16.3571  -17.0562    0.0000 H   0  0  0  0  0  0  0  0  0  0  0  0
  -18.2523  -16.6999    0.0000 H   0  0  0  0  0  0  0  0  0  0  0  0
  -18.4331  -15.0761    0.0000 H   0  0  0  0  0  0  0  0  0  0  0  0
  1  2  1  0
  2  3  1  0
  3  4  2  0
  4  5  1  0
  5  6  2  0
  6  7  1  0
  7  8  2  0
  7  9  1  0
  9 10  1  0
 10 11  1  0
 11 12  2  0
  9 13  1  0
 13 14  1  0
 14 15  2  0
 15 16  1  0
 16 17  2  0
 17 18  1  0
 16 19  1  0
 14 20  1  0
 20 21  1  0
 21 22  2  0
 22 23  1  0
 23 24  2  0
 24 25  1  0
 25 26  2  0
 25 27  1  0
  1 28  2  0
  1 29  1  0
 29 30  1  0
 30 31  1  0
 31 32  1  0
 32 33  2  0
 32 34  1  0
 34 35  1  0
 35 36  1  0
 36 37  1  0
 37 38  1  0
 37 39  2  0
 35 40  1  0
 40 41  2  0
 40 42  1  0
 42 43  1  0
 43 44  1  0
 44 45  1  0
 45 46  1  0
 46 47  1  0
 47 48  1  0
 43 49  1  0
 49 50  2  0
 49 51  1  0
 51 52  1  0
 52 53  1  0
 53 54  1  0
 54 55  1  0
 54 56  1  0
 52 57  1  0
 57 58  2  0
 57 59  1  0
 60 59  1  6
 60 61  1  0
 61 62  1  0
 62 63  1  0
 63 64  1  0
 64 65  1  0
 65 66  1  0
 66 67  1  0
 60 68  1  0
 60 69  1  0
 69 70  2  0
 69 71  1  0
 71 72  1  0
 72 73  1  0
 73 74  1  0
 74 75  1  0
 75 76  1  0
 76 77  1  0
 77 78  2  3
 77 79  1  0
 72 80  1  0
 80 81  2  0
 80 82  1  0
 82 83  1  0
 83 84  1  0
 84 85  1  0
 83 86  1  0
 86 87  2  0
 86 88  1  0
 88 89  1  0
 89 90  1  0
 90 91  1  0
 91 92  2  0
 92 93  1  0
 93 94  2  0
 94 95  1  0
 95 96  2  0
 89 97  1  0
 97 98  2  0
 97 99  1  0
 99100  1  0
100101  1  0
101102  1  0
102103  1  0
103104  1  0
104105  1  0
100106  1  0
106107  2  0
106108  1  0
108109  1  0
109110  1  0
109111  1  0
111112  2  0
111113  1  0
113114  1  0
114115  1  0
115116  1  0
116117  1  0
116118  1  0
114119  1  0
119120  2  0
119121  1  0
121122  1  0
122123  1  0
123124  1  0
124125  1  0
125126  1  0
122127  1  0
122128  1  1
128129  2  0
128130  1  0
130131  1  0
131132  1  0
132133  1  0
133134  1  0
134135  1  0
135136  1  0
131137  1  0
137138  2  0
137139  1  0
139140  1  0
140141  1  0
141142  1  0
142143  1  0
143144  1  0
143145  2  0
140146  1  0
146147  2  0
146148  1  0
148149  1  0
149150  1  0
150151  1  0
150152  1  0
152153  1  0
149154  1  0
154155  2  0
154156  1  0
  8  3  1  0
 96 91  1  0
 11  6  1  0
 18 13  2  0
 67126  2  0
 22  9  1  0
 26 21  1  0
  2157  1  0
  4158  1  0
  5159  1  0
  8160  1  0
 15161  1  0
 17162  1  0
 18163  1  0
 19164  1  0
 23165  1  0
 24166  1  0
 26167  1  0
 27168  1  0
 29169  1  0
 30170  1  0
 30171  1  0
 31172  1  0
 31173  1  0
 34174  1  0
 35175  1  1
 36176  1  0
 36177  1  0
 38178  1  0
 38179  1  0
 42180  1  0
 43181  1  1
 44182  1  0
 44183  1  0
 45184  1  0
 45185  1  0
 46186  1  0
 46187  1  0
 47188  1  0
 47189  1  0
 48190  1  0
 48191  1  0
 48192  1  0
 51193  1  0
 52194  1  1
 53195  1  0
 53196  1  0
 54197  1  0
 55198  1  0
 55199  1  0
 55200  1  0
 56201  1  0
 56202  1  0
 56203  1  0
 59204  1  0
 61205  1  0
 61206  1  0
 62207  1  0
 62208  1  0
 63209  1  0
 63210  1  0
 64211  1  0
 64212  1  0
 65213  1  0
 65214  1  0
 66215  1  0
 66216  1  0
 67217  1  0
 68218  1  0
 68219  1  0
 68220  1  0
 71221  1  0
 72222  1  6
 73223  1  0
 73224  1  0
 74225  1  0
 74226  1  0
 75227  1  0
 75228  1  0
 76229  1  0
 78230  1  0
 78231  1  0
 79232  1  0
 79233  1  0
 82234  1  0
 83235  1  6
 84236  1  0
 84237  1  0
 85238  1  0
 88239  1  0
 89240  1  6
 90241  1  0
 90242  1  0
 92243  1  0
 93244  1  0
 94245  1  0
 95246  1  0
 96247  1  0
 99248  1  0
100249  1  6
101250  1  0
101251  1  0
102252  1  0
102253  1  0
103254  1  0
103255  1  0
104256  1  0
104257  1  0
105258  1  0
105259  1  0
105260  1  0
108261  1  0
109262  1  6
110263  1  0
110264  1  0
110265  1  0
113266  1  0
114267  1  6
115268  1  0
115269  1  0
116270  1  0
117271  1  0
117272  1  0
117273  1  0
118274  1  0
118275  1  0
118276  1  0
121277  1  0
123278  1  0
123279  1  0
124280  1  0
124281  1  0
125282  1  0
125283  1  0
126284  1  0
127285  1  0
127286  1  0
127287  1  0
130288  1  0
131289  1  1
132290  1  0
132291  1  0
133292  1  0
133293  1  0
134294  1  0
134295  1  0
135296  1  0
135297  1  0
136298  1  0
136299  1  0
136300  1  0
139301  1  0
140302  1  6
141303  1  0
141304  1  0
142305  1  0
142306  1  0
144307  1  0
144308  1  0
148309  1  0
149310  1  1
150311  1  1
151312  1  0
151313  1  0
151314  1  0
152315  1  0
152316  1  0
153317  1  0
153318  1  0
153319  1  0
M  CHG  5  48   1  78   1 105   1 136   1 156  -1
M  END
