
     RDKit          2D

311317  0  0  0  0  0  0  0  0999 V2000
   21.1532   -1.7215    0.0000 C   0  0  0  0  0  0  0  0  0  0  0  0
   22.1656   -0.6147    0.0000 N   0  0  0  0  0  0  0  0  0  0  0  0
   23.6303   -0.9380    0.0000 C   0  0  0  0  0  0  0  0  0  0  0  0
   24.0826   -2.3682    0.0000 C   0  0  0  0  0  0  0  0  0  0  0  0
   25.5474   -2.6916    0.0000 C   0  0  0  0  0  0  0  0  0  0  0  0
   26.5598   -1.5847    0.0000 C   0  0  0  0  0  0  0  0  0  0  0  0
   26.1074   -0.1546    0.0000 C   0  0  0  0  0  0  0  0  0  0  0  0
   24.6427    0.1688    0.0000 C   0  0  0  0  0  0  0  0  0  0  0  0
   27.3278    0.7176    0.0000 C   0  0  0  0  0  0  0  0  0  0  0  0
   28.5344   -0.1736    0.0000 O   0  0  0  0  0  0  0  0  0  0  0  0
   28.0597   -1.5965    0.0000 C   0  0  0  0  0  0  0  0  0  0  0  0
   28.9318   -2.8169    0.0000 O   0  0  0  0  0  0  0  0  0  0  0  0
   28.6327    1.4574    0.0000 C   0  0  0  0  0  0  0  0  0  0  0  0
   28.6444    2.9573    0.0000 C   0  0  0  0  0  0  0  0  0  0  0  0
   29.9493    3.6971    0.0000 C   0  0  0  0  0  0  0  0  0  0  0  0
   31.2424    2.9370    0.0000 C   0  0  0  0  0  0  0  0  0  0  0  0
   31.2307    1.4370    0.0000 C   0  0  0  0  0  0  0  0  0  0  0  0
   29.9258    0.6972    0.0000 C   0  0  0  0  0  0  0  0  0  0  0  0
   32.5473    3.6768    0.0000 O   0  0  0  0  0  0  0  0  0  0  0  0
   27.3513    3.7175    0.0000 O   0  0  0  0  0  0  0  0  0  0  0  0
   26.0465    2.9777    0.0000 C   0  0  0  0  0  0  0  0  0  0  0  0
   26.0347    1.4777    0.0000 C   0  0  0  0  0  0  0  0  0  0  0  0
   24.7353    1.4379    0.0000 C   0  0  0  0  0  0  0  0  0  0  0  0
   24.0456    1.8433    0.0000 C   0  0  0  0  0  0  0  0  0  0  0  0
   24.0519    2.6433    0.0000 C   0  0  0  0  0  0  0  0  0  0  0  0
   24.7478    3.0379    0.0000 C   0  0  0  0  0  0  0  0  0  0  0  0
   22.1553    3.7582    0.0000 O   0  0  0  0  0  0  0  0  0  0  0  0
   21.6055   -3.1517    0.0000 S   0  0  0  0  0  0  0  0  0  0  0  0
   19.6884   -1.3981    0.0000 N   0  0  0  0  0  0  0  0  0  0  0  0
   18.6760   -2.5049    0.0000 C   0  0  0  0  0  0  0  0  0  0  0  0
   17.2113   -2.1816    0.0000 C   0  0  0  0  0  0  0  0  0  0  0  0
   16.1989   -3.2884    0.0000 C   0  0  0  0  0  0  0  0  0  0  0  0
   16.6160   -3.9677    0.0000 O   0  0  0  0  0  0  0  0  0  0  0  0
   14.7342   -2.9651    0.0000 N   0  0  0  0  0  0  0  0  0  0  0  0
   13.7218   -4.0719    0.0000 C   0  0  0  0  0  0  0  0  0  0  0  0
   14.9876   -4.8767    0.0000 C   0  0  0  0  0  0  0  0  0  0  0  0
   16.3175   -4.1829    0.0000 C   0  0  0  0  0  0  0  0  0  0  0  0
   17.5833   -4.9877    0.0000 C   0  0  0  0  0  0  0  0  0  0  0  0
   18.9132   -4.2939    0.0000 C   0  0  0  0  0  0  0  0  0  0  0  0
   18.9773   -2.7953    0.0000 C   0  0  0  0  0  0  0  0  0  0  0  0
   17.7115   -1.9904    0.0000 C   0  0  0  0  0  0  0  0  0  0  0  0
   16.3816   -2.6843    0.0000 C   0  0  0  0  0  0  0  0  0  0  0  0
   12.3919   -4.7657    0.0000 C   0  0  0  0  0  0  0  0  0  0  0  0
   12.6923   -6.2353    0.0000 O   0  0  0  0  0  0  0  0  0  0  0  0
   11.1261   -3.9609    0.0000 N   0  0  0  0  0  0  0  0  0  0  0  0
    9.7962   -4.6547    0.0000 C   0  0  0  0  0  0  0  0  0  0  0  0
   10.7104   -5.8439    0.0000 C   0  0  0  0  0  0  0  0  0  0  0  0
   12.1973   -5.6468    0.0000 C   0  0  0  0  0  0  0  0  0  0  0  0
   13.1115   -6.8360    0.0000 N   0  0  0  0  0  0  0  0  0  0  0  0
   13.0886   -4.4402    0.0000 O   0  0  0  0  0  0  0  0  0  0  0  0
    8.3092   -4.8518    0.0000 C   0  0  0  0  0  0  0  0  0  0  0  0
    8.0888   -6.3355    0.0000 O   0  0  0  0  0  0  0  0  0  0  0  0
    7.3950   -3.6626    0.0000 N   0  0  0  0  0  0  0  0  0  0  0  0
    5.9080   -3.8597    0.0000 C   0  0  0  0  0  0  0  0  0  0  0  0
    6.3603   -5.2898    0.0000 C   0  0  0  0  0  0  0  0  0  0  0  0
    7.8250   -5.6132    0.0000 C   0  0  0  0  0  0  0  0  0  0  0  0
    6.2962   -6.7885    0.0000 C   0  0  0  0  0  0  0  0  0  0  0  0
    7.5620   -7.5933    0.0000 C   0  0  0  0  0  0  0  0  0  0  0  0
    4.4432   -3.5363    0.0000 C   0  0  0  0  0  0  0  0  0  0  0  0
    3.7287   -4.8552    0.0000 O   0  0  0  0  0  0  0  0  0  0  0  0
    3.9909   -2.1061    0.0000 N   0  0  0  0  0  0  0  0  0  0  0  0
    2.5262   -1.7828    0.0000 C   0  0  0  0  0  0  0  0  0  0  0  0
    2.4621   -3.2814    0.0000 C   0  0  0  0  0  0  0  0  0  0  0  0
    3.7279   -4.0862    0.0000 C   0  0  0  0  0  0  0  0  0  0  0  0
    3.6638   -5.5849    0.0000 N   0  0  0  0  0  0  0  0  0  0  0  0
    5.1861   -3.7349    0.0000 O   0  0  0  0  0  0  0  0  0  0  0  0
    1.2604   -0.9780    0.0000 C   0  0  0  0  0  0  0  0  0  0  0  0
    0.1379   -1.9730    0.0000 O   0  0  0  0  0  0  0  0  0  0  0  0
    1.3245    0.5207    0.0000 N   0  0  0  0  0  0  0  0  0  0  0  0
    0.0587    1.3255    0.0000 C   0  0  0  0  0  0  0  0  0  0  0  0
   -0.1004   -0.1661    0.0000 C   0  0  0  0  0  0  0  0  0  0  0  0
   -0.5388   -1.6006    0.0000 C   0  0  0  0  0  0  0  0  0  0  0  0
   -1.2408   -2.9262    0.0000 C   0  0  0  0  0  0  0  0  0  0  0  0
   -2.1809   -4.0950    0.0000 C   0  0  0  0  0  0  0  0  0  0  0  0
   -3.3253   -5.0647    0.0000 C   0  0  0  0  0  0  0  0  0  0  0  0
   -4.6325   -5.8004    0.0000 C   0  0  0  0  0  0  0  0  0  0  0  0
   -6.0553   -6.2753    0.0000 C   0  0  0  0  0  0  0  0  0  0  0  0
    1.3419    2.1022    0.0000 C   0  0  0  0  0  0  0  0  0  0  0  0
   -0.0675    2.8202    0.0000 C   0  0  0  0  0  0  0  0  0  0  0  0
    1.3648    3.2657    0.0000 O   0  0  0  0  0  0  0  0  0  0  0  0
   -0.4742    4.2640    0.0000 N   0  0  0  0  0  0  0  0  0  0  0  0
   -1.1468    5.6047    0.0000 C   0  0  0  0  0  0  0  0  0  0  0  0
   -0.4873    6.9519    0.0000 C   0  0  0  0  0  0  0  0  0  0  0  0
    1.0092    7.0543    0.0000 C   0  0  0  0  0  0  0  0  0  0  0  0
    1.6688    8.4015    0.0000 C   0  0  0  0  0  0  0  0  0  0  0  0
    3.1653    8.5039    0.0000 N   0  0  0  0  0  0  0  0  0  0  0  0
    3.8249    9.8512    0.0000 C   0  0  0  0  0  0  0  0  0  0  0  0
    5.3214    9.9536    0.0000 N   0  0  0  0  0  0  0  0  0  0  0  0
    2.9879   11.0960    0.0000 N   0  0  0  0  0  0  0  0  0  0  0  0
   -2.0610    6.7939    0.0000 C   0  0  0  0  0  0  0  0  0  0  0  0
   -1.0970    7.9431    0.0000 O   0  0  0  0  0  0  0  0  0  0  0  0
   -3.1838    7.7886    0.0000 N   0  0  0  0  0  0  0  0  0  0  0  0
   -4.4745    8.5529    0.0000 C   0  0  0  0  0  0  0  0  0  0  0  0
   -4.6480   10.0428    0.0000 C   0  0  0  0  0  0  0  0  0  0  0  0
   -3.3442   10.7847    0.0000 C   0  0  0  0  0  0  0  0  0  0  0  0
   -5.3206   11.3836    0.0000 C   0  0  0  0  0  0  0  0  0  0  0  0
   -4.4958   12.6365    0.0000 C   0  0  0  0  0  0  0  0  0  0  0  0
   -5.8865    9.0591    0.0000 C   0  0  0  0  0  0  0  0  0  0  0  0
   -5.5168   10.5128    0.0000 O   0  0  0  0  0  0  0  0  0  0  0  0
   -7.3688    9.2889    0.0000 N   0  0  0  0  0  0  0  0  0  0  0  0
   -8.8678    9.2340    0.0000 C   0  0  0  0  0  0  0  0  0  0  0  0
   -9.8192   10.3936    0.0000 C   0  0  0  0  0  0  0  0  0  0  0  0
   -9.2907   11.7974    0.0000 C   0  0  0  0  0  0  0  0  0  0  0  0
  -10.2422   12.9570    0.0000 C   0  0  0  0  0  0  0  0  0  0  0  0
   -9.7137   14.3608    0.0000 C   0  0  0  0  0  0  0  0  0  0  0  0
  -10.6652   15.5205    0.0000 N   0  0  0  0  0  0  0  0  0  0  0  0
  -10.3293    8.8964    0.0000 C   0  0  0  0  0  0  0  0  0  0  0  0
  -10.9742   10.2508    0.0000 O   0  0  0  0  0  0  0  0  0  0  0  0
  -11.7005    8.2884    0.0000 N   0  0  0  0  0  0  0  0  0  0  0  0
  -12.9319    7.4318    0.0000 C   0  0  0  0  0  0  0  0  0  0  0  0
  -14.3593    7.8929    0.0000 C   0  0  0  0  0  0  0  0  0  0  0  0
  -14.6736    9.3596    0.0000 C   0  0  0  0  0  0  0  0  0  0  0  0
  -16.1010    9.8207    0.0000 C   0  0  0  0  0  0  0  0  0  0  0  0
  -16.4153   11.2874    0.0000 O   0  0  0  0  0  0  0  0  0  0  0  0
  -17.2140    8.8152    0.0000 O   0  0  0  0  0  0  0  0  0  0  0  0
  -13.9789    6.3577    0.0000 C   0  0  0  0  0  0  0  0  0  0  0  0
  -15.2536    7.1483    0.0000 O   0  0  0  0  0  0  0  0  0  0  0  0
  -14.8037    5.1048    0.0000 N   0  0  0  0  0  0  0  0  0  0  0  0
  -15.3765    3.7185    0.0000 C   0  0  0  0  0  0  0  0  0  0  0  0
  -16.8266    3.3347    0.0000 C   0  0  0  0  0  0  0  0  0  0  0  0
  -17.8840    4.3986    0.0000 C   0  0  0  0  0  0  0  0  0  0  0  0
  -19.3340    4.0148    0.0000 C   0  0  0  0  0  0  0  0  0  0  0  0
  -18.5137    5.7600    0.0000 C   0  0  0  0  0  0  0  0  0  0  0  0
  -15.6766    2.2488    0.0000 C   0  0  0  0  0  0  0  0  0  0  0  0
  -17.1764    2.2248    0.0000 O   0  0  0  0  0  0  0  0  0  0  0  0
  -15.6931    0.7489    0.0000 N   0  0  0  0  0  0  0  0  0  0  0  0
  -15.4254   -0.7271    0.0000 C   0  0  0  0  0  0  0  0  0  0  0  0
  -14.8833   -2.1257    0.0000 C   0  0  0  0  0  0  0  0  0  0  0  0
  -16.2241   -2.7983    0.0000 O   0  0  0  0  0  0  0  0  0  0  0  0
  -14.0863   -3.3964    0.0000 N   0  0  0  0  0  0  0  0  0  0  0  0
  -13.0632   -4.4933    0.0000 C   0  0  0  0  0  0  0  0  0  0  0  0
  -11.8510   -5.3768    0.0000 C   0  0  0  0  0  0  0  0  0  0  0  0
  -10.4935   -6.0149    0.0000 C   0  0  0  0  0  0  0  0  0  0  0  0
   -9.0397   -6.3846    0.0000 C   0  0  0  0  0  0  0  0  0  0  0  0
   -7.5423   -6.4724    0.0000 C   0  0  0  0  0  0  0  0  0  0  0  0
  -14.5004   -4.9229    0.0000 C   0  0  0  0  0  0  0  0  0  0  0  0
  -13.3165   -5.9718    0.0000 C   0  0  0  0  0  0  0  0  0  0  0  0
  -12.4290   -7.1811    0.0000 O   0  0  0  0  0  0  0  0  0  0  0  0
  -14.7235   -6.4917    0.0000 N   0  0  0  0  0  0  0  0  0  0  0  0
  -14.9768   -7.9701    0.0000 C   0  0  0  0  0  0  0  0  0  0  0  0
  -14.7092   -9.4460    0.0000 C   0  0  0  0  0  0  0  0  0  0  0  0
  -15.8535  -10.4158    0.0000 C   0  0  0  0  0  0  0  0  0  0  0  0
  -15.5859  -11.8917    0.0000 C   0  0  0  0  0  0  0  0  0  0  0  0
  -17.2606  -10.9357    0.0000 C   0  0  0  0  0  0  0  0  0  0  0  0
  -16.3838   -8.4900    0.0000 C   0  0  0  0  0  0  0  0  0  0  0  0
  -17.5376   -7.5314    0.0000 O   0  0  0  0  0  0  0  0  0  0  0  0
  -16.6371   -9.9684    0.0000 N   0  0  0  0  0  0  0  0  0  0  0  0
  -18.0442  -10.4883    0.0000 C   0  0  0  0  0  0  0  0  0  0  0  0
  -19.5441  -10.4956    0.0000 C   0  0  0  0  0  0  0  0  0  0  0  0
  -20.1369   -9.1177    0.0000 C   0  0  0  0  0  0  0  0  0  0  0  0
  -20.9512  -11.0155    0.0000 C   0  0  0  0  0  0  0  0  0  0  0  0
  -22.1049  -10.0569    0.0000 C   0  0  0  0  0  0  0  0  0  0  0  0
  -18.2975  -11.9668    0.0000 C   0  0  0  0  0  0  0  0  0  0  0  0
  -19.5369  -12.8117    0.0000 O   0  0  0  0  0  0  0  0  0  0  0  0
  -17.2692  -13.0589    0.0000 O   0  0  0  0  0  0  0  0  0  0  0  0
   21.5423    0.7497    0.0000 H   0  0  0  0  0  0  0  0  0  0  0  0
   23.0702   -3.4750    0.0000 H   0  0  0  0  0  0  0  0  0  0  0  0
   25.9997   -4.1217    0.0000 H   0  0  0  0  0  0  0  0  0  0  0  0
   23.8577    1.4470    0.0000 H   0  0  0  0  0  0  0  0  0  0  0  0
   29.9611    5.1971    0.0000 H   0  0  0  0  0  0  0  0  0  0  0  0
   32.5238    0.6769    0.0000 H   0  0  0  0  0  0  0  0  0  0  0  0
   29.9141   -0.8027    0.0000 H   0  0  0  0  0  0  0  0  0  0  0  0
   33.8404    2.9166    0.0000 H   0  0  0  0  0  0  0  0  0  0  0  0
   24.7181   -0.7620    0.0000 H   0  0  0  0  0  0  0  0  0  0  0  0
   22.0514    0.9229    0.0000 H   0  0  0  0  0  0  0  0  0  0  0  0
   24.7651    5.2378    0.0000 H   0  0  0  0  0  0  0  0  0  0  0  0
   22.1671    5.2582    0.0000 H   0  0  0  0  0  0  0  0  0  0  0  0
   19.2361    0.0320    0.0000 H   0  0  0  0  0  0  0  0  0  0  0  0
   19.9418   -3.3098    0.0000 H   0  0  0  0  0  0  0  0  0  0  0  0
   18.1032   -3.8913    0.0000 H   0  0  0  0  0  0  0  0  0  0  0  0
   17.6108   -0.7358    0.0000 H   0  0  0  0  0  0  0  0  0  0  0  0
   15.9455   -1.3768    0.0000 H   0  0  0  0  0  0  0  0  0  0  0  0
   14.1109   -1.6007    0.0000 H   0  0  0  0  0  0  0  0  0  0  0  0
   12.8076   -2.8827    0.0000 H   0  0  0  0  0  0  0  0  0  0  0  0
   15.9018   -6.0659    0.0000 H   0  0  0  0  0  0  0  0  0  0  0  0
   14.1176   -6.0987    0.0000 H   0  0  0  0  0  0  0  0  0  0  0  0
   17.5192   -6.4863    0.0000 H   0  0  0  0  0  0  0  0  0  0  0  0
   20.1790   -5.0987    0.0000 H   0  0  0  0  0  0  0  0  0  0  0  0
   20.3072   -2.1015    0.0000 H   0  0  0  0  0  0  0  0  0  0  0  0
   17.9577   -0.5108    0.0000 H   0  0  0  0  0  0  0  0  0  0  0  0
   15.2233   -1.7311    0.0000 H   0  0  0  0  0  0  0  0  0  0  0  0
   11.1901   -2.4622    0.0000 H   0  0  0  0  0  0  0  0  0  0  0  0
    9.3438   -3.2245    0.0000 H   0  0  0  0  0  0  0  0  0  0  0  0
   11.1627   -7.2741    0.0000 H   0  0  0  0  0  0  0  0  0  0  0  0
    9.3805   -6.5377    0.0000 H   0  0  0  0  0  0  0  0  0  0  0  0
   14.6115   -6.8216    0.0000 H   0  0  0  0  0  0  0  0  0  0  0  0
   12.5388   -8.2223    0.0000 H   0  0  0  0  0  0  0  0  0  0  0  0
    7.9678   -2.2762    0.0000 H   0  0  0  0  0  0  0  0  0  0  0  0
    5.9721   -2.3610    0.0000 H   0  0  0  0  0  0  0  0  0  0  0  0
    4.9084   -5.6667    0.0000 H   0  0  0  0  0  0  0  0  0  0  0  0
    8.4483   -6.9776    0.0000 H   0  0  0  0  0  0  0  0  0  0  0  0
    9.3120   -5.4161    0.0000 H   0  0  0  0  0  0  0  0  0  0  0  0
    8.2910   -4.1920    0.0000 H   0  0  0  0  0  0  0  0  0  0  0  0
    5.7234   -8.1748    0.0000 H   0  0  0  0  0  0  0  0  0  0  0  0
    4.8030   -6.6461    0.0000 H   0  0  0  0  0  0  0  0  0  0  0  0
    7.4979   -9.0919    0.0000 H   0  0  0  0  0  0  0  0  0  0  0  0
    9.0267   -7.9167    0.0000 H   0  0  0  0  0  0  0  0  0  0  0  0
    8.5937   -6.5044    0.0000 H   0  0  0  0  0  0  0  0  0  0  0  0
    5.0033   -0.9993    0.0000 H   0  0  0  0  0  0  0  0  0  0  0  0
    3.0990   -0.3965    0.0000 H   0  0  0  0  0  0  0  0  0  0  0  0
    1.8893   -4.6677    0.0000 H   0  0  0  0  0  0  0  0  0  0  0  0
    0.9973   -2.9581    0.0000 H   0  0  0  0  0  0  0  0  0  0  0  0
    4.6972   -6.6721    0.0000 H   0  0  0  0  0  0  0  0  0  0  0  0
    2.3339   -6.2787    0.0000 H   0  0  0  0  0  0  0  0  0  0  0  0
    2.7290    1.0472    0.0000 H   0  0  0  0  0  0  0  0  0  0  0  0
    1.3907   -0.0021    0.0000 H   0  0  0  0  0  0  0  0  0  0  0  0
    0.8566   -1.3212    0.0000 H   0  0  0  0  0  0  0  0  0  0  0  0
    0.9304   -1.9031    0.0000 H   0  0  0  0  0  0  0  0  0  0  0  0
    0.3372   -2.8182    0.0000 H   0  0  0  0  0  0  0  0  0  0  0  0
    0.2587   -2.9665    0.0000 H   0  0  0  0  0  0  0  0  0  0  0  0
   -0.4498   -4.2007    0.0000 H   0  0  0  0  0  0  0  0  0  0  0  0
   -0.7665   -4.5945    0.0000 H   0  0  0  0  0  0  0  0  0  0  0  0
   -1.6454   -5.4961    0.0000 H   0  0  0  0  0  0  0  0  0  0  0  0
   -2.0310   -5.8229    0.0000 H   0  0  0  0  0  0  0  0  0  0  0  0
   -3.0646   -6.5419    0.0000 H   0  0  0  0  0  0  0  0  0  0  0  0
   -3.5051   -6.7898    0.0000 H   0  0  0  0  0  0  0  0  0  0  0  0
   -4.8388   -7.2861    0.0000 H   0  0  0  0  0  0  0  0  0  0  0  0
   -5.7178   -7.7369    0.0000 H   0  0  0  0  0  0  0  0  0  0  0  0
    2.7345    1.5449    0.0000 H   0  0  0  0  0  0  0  0  0  0  0  0
    2.4175    3.1477    0.0000 H   0  0  0  0  0  0  0  0  0  0  0  0
    0.6566    3.4366    0.0000 H   0  0  0  0  0  0  0  0  0  0  0  0
    0.9801    4.6316    0.0000 H   0  0  0  0  0  0  0  0  0  0  0  0
    0.3429    5.4291    0.0000 H   0  0  0  0  0  0  0  0  0  0  0  0
   -0.3282    8.4435    0.0000 H   0  0  0  0  0  0  0  0  0  0  0  0
   -1.7851    7.7039    0.0000 H   0  0  0  0  0  0  0  0  0  0  0  0
    2.4505    6.6387    0.0000 H   0  0  0  0  0  0  0  0  0  0  0  0
    1.2159    5.5686    0.0000 H   0  0  0  0  0  0  0  0  0  0  0  0
    1.8278    9.8931    0.0000 H   0  0  0  0  0  0  0  0  0  0  0  0
    0.2889    8.9897    0.0000 H   0  0  0  0  0  0  0  0  0  0  0  0
    4.0022    7.2591    0.0000 H   0  0  0  0  0  0  0  0  0  0  0  0
    5.9809   11.3008    0.0000 H   0  0  0  0  0  0  0  0  0  0  0  0
    6.1583    8.7088    0.0000 H   0  0  0  0  0  0  0  0  0  0  0  0
    3.6475   12.4432    0.0000 H   0  0  0  0  0  0  0  0  0  0  0  0
    1.4914   10.9936    0.0000 H   0  0  0  0  0  0  0  0  0  0  0  0
   -2.1591    8.8841    0.0000 H   0  0  0  0  0  0  0  0  0  0  0  0
   -3.1263    9.2106    0.0000 H   0  0  0  0  0  0  0  0  0  0  0  0
   -6.1464    9.9738    0.0000 H   0  0  0  0  0  0  0  0  0  0  0  0
   -3.4155   12.4491    0.0000 H   0  0  0  0  0  0  0  0  0  0  0  0
   -2.0072   11.3676    0.0000 H   0  0  0  0  0  0  0  0  0  0  0  0
   -2.4673    9.7999    0.0000 H   0  0  0  0  0  0  0  0  0  0  0  0
   -6.4112   12.4134    0.0000 H   0  0  0  0  0  0  0  0  0  0  0  0
   -6.6243   10.6417    0.0000 H   0  0  0  0  0  0  0  0  0  0  0  0
   -5.1684   13.9772    0.0000 H   0  0  0  0  0  0  0  0  0  0  0  0
   -3.2922   13.5317    0.0000 H   0  0  0  0  0  0  0  0  0  0  0  0
   -3.1884   11.9011    0.0000 H   0  0  0  0  0  0  0  0  0  0  0  0
   -7.2809   10.7863    0.0000 H   0  0  0  0  0  0  0  0  0  0  0  0
   -8.0892   10.5161    0.0000 H   0  0  0  0  0  0  0  0  0  0  0  0
  -11.1099   11.1579    0.0000 H   0  0  0  0  0  0  0  0  0  0  0  0
  -11.0425    9.5254    0.0000 H   0  0  0  0  0  0  0  0  0  0  0  0
   -8.1825   12.8083    0.0000 H   0  0  0  0  0  0  0  0  0  0  0  0
   -7.8535   11.3682    0.0000 H   0  0  0  0  0  0  0  0  0  0  0  0
  -11.6164   13.5583    0.0000 H   0  0  0  0  0  0  0  0  0  0  0  0
  -11.3505   11.9462    0.0000 H   0  0  0  0  0  0  0  0  0  0  0  0
   -8.7369   15.4992    0.0000 H   0  0  0  0  0  0  0  0  0  0  0  0
   -8.3394   13.7596    0.0000 H   0  0  0  0  0  0  0  0  0  0  0  0
  -10.1366   16.9243    0.0000 H   0  0  0  0  0  0  0  0  0  0  0  0
  -11.9559   16.2847    0.0000 H   0  0  0  0  0  0  0  0  0  0  0  0
  -11.7734   14.5096    0.0000 H   0  0  0  0  0  0  0  0  0  0  0  0
  -12.2713    9.6755    0.0000 H   0  0  0  0  0  0  0  0  0  0  0  0
  -12.9701    8.9313    0.0000 H   0  0  0  0  0  0  0  0  0  0  0  0
  -15.8538    8.0212    0.0000 H   0  0  0  0  0  0  0  0  0  0  0  0
  -14.9189    6.5012    0.0000 H   0  0  0  0  0  0  0  0  0  0  0  0
  -14.4673   10.8454    0.0000 H   0  0  0  0  0  0  0  0  0  0  0  0
  -13.2324    9.7756    0.0000 H   0  0  0  0  0  0  0  0  0  0  0  0
  -16.0339    5.9631    0.0000 H   0  0  0  0  0  0  0  0  0  0  0  0
  -16.2193    4.9593    0.0000 H   0  0  0  0  0  0  0  0  0  0  0  0
  -18.0579    2.4781    0.0000 H   0  0  0  0  0  0  0  0  0  0  0  0
  -16.5450    1.8614    0.0000 H   0  0  0  0  0  0  0  0  0  0  0  0
  -16.8965    5.5277    0.0000 H   0  0  0  0  0  0  0  0  0  0  0  0
  -20.5132    4.9419    0.0000 H   0  0  0  0  0  0  0  0  0  0  0  0
  -20.5654    3.1583    0.0000 H   0  0  0  0  0  0  0  0  0  0  0  0
  -18.8749    2.5868    0.0000 H   0  0  0  0  0  0  0  0  0  0  0  0
  -19.9800    6.0764    0.0000 H   0  0  0  0  0  0  0  0  0  0  0  0
  -18.6398    7.2547    0.0000 H   0  0  0  0  0  0  0  0  0  0  0  0
  -17.0636    6.1438    0.0000 H   0  0  0  0  0  0  0  0  0  0  0  0
  -17.1878    0.6227    0.0000 H   0  0  0  0  0  0  0  0  0  0  0  0
  -16.4378   -1.8339    0.0000 H   0  0  0  0  0  0  0  0  0  0  0  0
  -16.8667   -0.3115    0.0000 H   0  0  0  0  0  0  0  0  0  0  0  0
  -15.3781   -4.1588    0.0000 H   0  0  0  0  0  0  0  0  0  0  0  0
  -11.8199   -6.8765    0.0000 H   0  0  0  0  0  0  0  0  0  0  0  0
  -12.9735   -6.3718    0.0000 H   0  0  0  0  0  0  0  0  0  0  0  0
  -10.3603   -7.5090    0.0000 H   0  0  0  0  0  0  0  0  0  0  0  0
  -11.4074   -7.2044    0.0000 H   0  0  0  0  0  0  0  0  0  0  0  0
   -8.4535   -7.7653    0.0000 H   0  0  0  0  0  0  0  0  0  0  0  0
   -9.8705   -7.6335    0.0000 H   0  0  0  0  0  0  0  0  0  0  0  0
   -7.4874   -7.9714    0.0000 H   0  0  0  0  0  0  0  0  0  0  0  0
  -15.1898   -6.2551    0.0000 H   0  0  0  0  0  0  0  0  0  0  0  0
  -15.9978   -4.8350    0.0000 H   0  0  0  0  0  0  0  0  0  0  0  0
  -15.0292   -3.5192    0.0000 H   0  0  0  0  0  0  0  0  0  0  0  0
  -15.9855   -5.6809    0.0000 H   0  0  0  0  0  0  0  0  0  0  0  0
  -13.4768   -7.9628    0.0000 H   0  0  0  0  0  0  0  0  0  0  0  0
  -13.8006  -10.6396    0.0000 H   0  0  0  0  0  0  0  0  0  0  0  0
  -13.3021   -8.9262    0.0000 H   0  0  0  0  0  0  0  0  0  0  0  0
  -17.1295   -9.6272    0.0000 H   0  0  0  0  0  0  0  0  0  0  0  0
  -16.4616  -13.1096    0.0000 H   0  0  0  0  0  0  0  0  0  0  0  0
  -14.8296  -13.1871    0.0000 H   0  0  0  0  0  0  0  0  0  0  0  0
  -14.1260  -11.5472    0.0000 H   0  0  0  0  0  0  0  0  0  0  0  0
  -18.6120  -10.2847    0.0000 H   0  0  0  0  0  0  0  0  0  0  0  0
  -17.9813  -12.2512    0.0000 H   0  0  0  0  0  0  0  0  0  0  0  0
  -16.6678  -12.3136    0.0000 H   0  0  0  0  0  0  0  0  0  0  0  0
  -15.7496  -11.1777    0.0000 H   0  0  0  0  0  0  0  0  0  0  0  0
  -18.1299   -8.9908    0.0000 H   0  0  0  0  0  0  0  0  0  0  0  0
  -19.6416  -11.9924    0.0000 H   0  0  0  0  0  0  0  0  0  0  0  0
  -21.7990   -9.0041    0.0000 H   0  0  0  0  0  0  0  0  0  0  0  0
  -20.5681   -7.7243    0.0000 H   0  0  0  0  0  0  0  0  0  0  0  0
  -18.9673   -8.5127    0.0000 H   0  0  0  0  0  0  0  0  0  0  0  0
  -22.0955  -11.9852    0.0000 H   0  0  0  0  0  0  0  0  0  0  0  0
  -20.3584  -12.3934    0.0000 H   0  0  0  0  0  0  0  0  0  0  0  0
  -23.5119  -10.5768    0.0000 H   0  0  0  0  0  0  0  0  0  0  0  0
  -22.8612   -8.7615    0.0000 H   0  0  0  0  0  0  0  0  0  0  0  0
  -21.2292   -8.8390    0.0000 H   0  0  0  0  0  0  0  0  0  0  0  0
  1  2  1  0
  2  3  1  0
  3  4  2  0
  4  5  1  0
  5  6  2  0
  6  7  1  0
  7  8  2  0
  7  9  1  0
  9 10  1  0
 10 11  1  0
 11 12  2  0
  9 13  1  0
 13 14  1  0
 14 15  2  0
 15 16  1  0
 16 17  2  0
 17 18  1  0
 16 19  1  0
 14 20  1  0
 20 21  1  0
 21 22  2  0
 22 23  1  0
 23 24  2  0
 24 25  1  0
 25 26  2  0
 25 27  1  0
  1 28  2  0
  1 29  1  0
 29 30  1  0
 30 31  1  0
 31 32  1  0
 32 33  2  0
 32 34  1  0
 34 35  1  0
 35 36  1  0
 36 37  1  0
 37 38  2  0
 38 39  1  0
 39 40  2  0
 40 41  1  0
 41 42  2  0
 35 43  1  0
 43 44  2  0
 43 45  1  0
 45 46  1  0
 46 47  1  0
 47 48  1  0
 48 49  1  0
 48 50  2  0
 46 51  1  0
 51 52  2  0
 51 53  1  0
 53 54  1  0
 54 55  1  0
 55 56  1  0
 55 57  1  0
 57 58  1  0
 54 59  1  0
 59 60  2  0
 59 61  1  0
 61 62  1  0
 62 63  1  0
 63 64  1  0
 64 65  1  0
 64 66  2  0
 62 67  1  0
 67 68  2  0
 67 69  1  0
 70 69  1  6
 70 71  1  0
 71 72  1  0
 72 73  1  0
 73 74  1  0
 74 75  1  0
 75 76  1  0
 76 77  1  0
 70 78  1  0
 70 79  1  0
 79 80  2  0
 79 81  1  0
 81 82  1  0
 82 83  1  0
 83 84  1  0
 84 85  1  0
 85 86  1  0
 86 87  1  0
 87 88  2  3
 87 89  1  0
 82 90  1  0
 90 91  2  0
 90 92  1  0
 92 93  1  0
 93 94  1  0
 94 95  1  0
 94 96  1  0
 96 97  1  0
 93 98  1  0
 98 99  2  0
 98100  1  0
100101  1  0
101102  1  0
102103  1  0
103104  1  0
104105  1  0
105106  1  0
101107  1  0
107108  2  0
107109  1  0
109110  1  0
110111  1  0
111112  1  0
112113  1  0
113114  2  0
113115  1  0
110116  1  0
116117  2  0
116118  1  0
118119  1  0
119120  1  0
120121  1  0
121122  1  0
121123  1  0
119124  1  0
124125  2  0
124126  1  0
126127  1  0
127128  1  0
128129  2  0
128130  1  0
130131  1  0
131132  1  0
132133  1  0
133134  1  0
134135  1  0
131136  1  0
131137  1  1
137138  2  0
137139  1  0
139140  1  0
140141  1  0
141142  1  0
142143  1  0
142144  1  0
140145  1  0
145146  2  0
145147  1  0
147148  1  0
148149  1  0
149150  1  0
149151  1  0
151152  1  0
148153  1  0
153154  2  0
153155  1  0
  8  3  1  0
 42 37  1  0
 11  6  1  0
 18 13  2  0
 77135  2  0
 22  9  1  0
 26 21  1  0
  2156  1  0
  4157  1  0
  5158  1  0
  8159  1  0
 15160  1  0
 17161  1  0
 18162  1  0
 19163  1  0
 23164  1  0
 24165  1  0
 26166  1  0
 27167  1  0
 29168  1  0
 30169  1  0
 30170  1  0
 31171  1  0
 31172  1  0
 34173  1  0
 35174  1  1
 36175  1  0
 36176  1  0
 38177  1  0
 39178  1  0
 40179  1  0
 41180  1  0
 42181  1  0
 45182  1  0
 46183  1  1
 47184  1  0
 47185  1  0
 49186  1  0
 49187  1  0
 53188  1  0
 54189  1  1
 55190  1  6
 56191  1  0
 56192  1  0
 56193  1  0
 57194  1  0
 57195  1  0
 58196  1  0
 58197  1  0
 58198  1  0
 61199  1  0
 62200  1  1
 63201  1  0
 63202  1  0
 65203  1  0
 65204  1  0
 69205  1  0
 71206  1  0
 71207  1  0
 72208  1  0
 72209  1  0
 73210  1  0
 73211  1  0
 74212  1  0
 74213  1  0
 75214  1  0
 75215  1  0
 76216  1  0
 76217  1  0
 77218  1  0
 78219  1  0
 78220  1  0
 78221  1  0
 81222  1  0
 82223  1  6
 83224  1  0
 83225  1  0
 84226  1  0
 84227  1  0
 85228  1  0
 85229  1  0
 86230  1  0
 88231  1  0
 88232  1  0
 89233  1  0
 89234  1  0
 92235  1  0
 93236  1  6
 94237  1  1
 95238  1  0
 95239  1  0
 95240  1  0
 96241  1  0
 96242  1  0
 97243  1  0
 97244  1  0
 97245  1  0
100246  1  0
101247  1  6
102248  1  0
102249  1  0
103250  1  0
103251  1  0
104252  1  0
104253  1  0
105254  1  0
105255  1  0
106256  1  0
106257  1  0
106258  1  0
109259  1  0
110260  1  6
111261  1  0
111262  1  0
112263  1  0
112264  1  0
118265  1  0
119266  1  6
120267  1  0
120268  1  0
121269  1  0
122270  1  0
122271  1  0
122272  1  0
123273  1  0
123274  1  0
123275  1  0
126276  1  0
127277  1  0
127278  1  0
130279  1  0
132280  1  0
132281  1  0
133282  1  0
133283  1  0
134284  1  0
134285  1  0
135286  1  0
136287  1  0
136288  1  0
136289  1  0
139290  1  0
140291  1  1
141292  1  0
141293  1  0
142294  1  0
143295  1  0
143296  1  0
143297  1  0
144298  1  0
144299  1  0
144300  1  0
147301  1  0
148302  1  6
149303  1  1
150304  1  0
150305  1  0
150306  1  0
151307  1  0
151308  1  0
152309  1  0
152310  1  0
152311  1  0
M  CHG  4  88   1 106   1 115  -1 155  -1
M  END
