
     RDKit          2D

416424  0  0  0  0  0  0  0  0999 V2000
   25.4031   -4.0186    0.0000 C   0  0  0  0  0  0  0  0  0  0  0  0
   26.7824   -3.4290    0.0000 N   0  0  0  0  0  0  0  0  0  0  0  0
   27.9826   -4.3286    0.0000 C   0  0  0  0  0  0  0  0  0  0  0  0
   27.8036   -5.8179    0.0000 C   0  0  0  0  0  0  0  0  0  0  0  0
   29.0039   -6.7176    0.0000 C   0  0  0  0  0  0  0  0  0  0  0  0
   30.3832   -6.1279    0.0000 C   0  0  0  0  0  0  0  0  0  0  0  0
   30.5621   -4.6386    0.0000 C   0  0  0  0  0  0  0  0  0  0  0  0
   29.3619   -3.7390    0.0000 C   0  0  0  0  0  0  0  0  0  0  0  0
   32.0339   -4.3487    0.0000 C   0  0  0  0  0  0  0  0  0  0  0  0
   32.7644   -5.6587    0.0000 O   0  0  0  0  0  0  0  0  0  0  0  0
   31.7442   -6.7584    0.0000 C   0  0  0  0  0  0  0  0  0  0  0  0
   32.0342   -8.2301    0.0000 O   0  0  0  0  0  0  0  0  0  0  0  0
   33.5278   -4.2141    0.0000 C   0  0  0  0  0  0  0  0  0  0  0  0
   34.1582   -2.8530    0.0000 C   0  0  0  0  0  0  0  0  0  0  0  0
   35.6522   -2.7184    0.0000 C   0  0  0  0  0  0  0  0  0  0  0  0
   36.5157   -3.9450    0.0000 C   0  0  0  0  0  0  0  0  0  0  0  0
   35.8853   -5.3060    0.0000 C   0  0  0  0  0  0  0  0  0  0  0  0
   34.3913   -5.4406    0.0000 C   0  0  0  0  0  0  0  0  0  0  0  0
   38.0097   -3.8104    0.0000 O   0  0  0  0  0  0  0  0  0  0  0  0
   33.2947   -1.6265    0.0000 O   0  0  0  0  0  0  0  0  0  0  0  0
   31.8008   -1.7611    0.0000 C   0  0  0  0  0  0  0  0  0  0  0  0
   31.1703   -3.1221    0.0000 C   0  0  0  0  0  0  0  0  0  0  0  0
   29.9706   -2.6215    0.0000 C   0  0  0  0  0  0  0  0  0  0  0  0
   29.5101   -1.9674    0.0000 C   0  0  0  0  0  0  0  0  0  0  0  0
   29.8463   -1.2415    0.0000 C   0  0  0  0  0  0  0  0  0  0  0  0
   30.6431   -1.1697    0.0000 C   0  0  0  0  0  0  0  0  0  0  0  0
   28.5798    0.5574    0.0000 O   0  0  0  0  0  0  0  0  0  0  0  0
   25.2241   -5.5079    0.0000 S   0  0  0  0  0  0  0  0  0  0  0  0
   24.2029   -3.1190    0.0000 N   0  0  0  0  0  0  0  0  0  0  0  0
   22.8236   -3.7086    0.0000 C   0  0  0  0  0  0  0  0  0  0  0  0
   21.6233   -2.8090    0.0000 C   0  0  0  0  0  0  0  0  0  0  0  0
   20.2441   -3.3986    0.0000 C   0  0  0  0  0  0  0  0  0  0  0  0
   20.2462   -4.1957    0.0000 O   0  0  0  0  0  0  0  0  0  0  0  0
   19.0438   -2.4989    0.0000 N   0  0  0  0  0  0  0  0  0  0  0  0
   17.6646   -3.0886    0.0000 C   0  0  0  0  0  0  0  0  0  0  0  0
   18.4848   -4.3445    0.0000 C   0  0  0  0  0  0  0  0  0  0  0  0
   18.8259   -5.8052    0.0000 O   0  0  0  0  0  0  0  0  0  0  0  0
   19.9814   -4.4453    0.0000 C   0  0  0  0  0  0  0  0  0  0  0  0
   16.1668   -3.1709    0.0000 C   0  0  0  0  0  0  0  0  0  0  0  0
   15.8332   -4.6333    0.0000 O   0  0  0  0  0  0  0  0  0  0  0  0
   15.3467   -1.9150    0.0000 N   0  0  0  0  0  0  0  0  0  0  0  0
   13.8489   -1.9974    0.0000 C   0  0  0  0  0  0  0  0  0  0  0  0
   14.1901   -3.4580    0.0000 C   0  0  0  0  0  0  0  0  0  0  0  0
   15.6257   -3.8929    0.0000 C   0  0  0  0  0  0  0  0  0  0  0  0
   15.9668   -5.3536    0.0000 C   0  0  0  0  0  0  0  0  0  0  0  0
   17.4024   -5.7885    0.0000 N   0  0  0  0  0  0  0  0  0  0  0  0
   17.7436   -7.2492    0.0000 C   0  0  0  0  0  0  0  0  0  0  0  0
   19.1792   -7.6840    0.0000 N   0  0  0  0  0  0  0  0  0  0  0  0
   16.6492   -8.2750    0.0000 N   0  0  0  0  0  0  0  0  0  0  0  0
   12.4133   -1.5625    0.0000 C   0  0  0  0  0  0  0  0  0  0  0  0
   11.5997   -2.8226    0.0000 O   0  0  0  0  0  0  0  0  0  0  0  0
   12.0722   -0.1018    0.0000 N   0  0  0  0  0  0  0  0  0  0  0  0
   10.6366    0.3331    0.0000 C   0  0  0  0  0  0  0  0  0  0  0  0
   10.4576   -1.1562    0.0000 C   0  0  0  0  0  0  0  0  0  0  0  0
   11.6579   -2.0558    0.0000 C   0  0  0  0  0  0  0  0  0  0  0  0
   11.4789   -3.5451    0.0000 C   0  0  0  0  0  0  0  0  0  0  0  0
   12.5605   -4.5844    0.0000 N   0  0  0  0  0  0  0  0  0  0  0  0
   10.0996   -4.1348    0.0000 O   0  0  0  0  0  0  0  0  0  0  0  0
    9.4363    1.2327    0.0000 C   0  0  0  0  0  0  0  0  0  0  0  0
    8.3601    0.1879    0.0000 O   0  0  0  0  0  0  0  0  0  0  0  0
    9.6153    2.7220    0.0000 N   0  0  0  0  0  0  0  0  0  0  0  0
    8.4151    3.6217    0.0000 C   0  0  0  0  0  0  0  0  0  0  0  0
    8.0887    2.1576    0.0000 C   0  0  0  0  0  0  0  0  0  0  0  0
    7.3453    0.8548    0.0000 C   0  0  0  0  0  0  0  0  0  0  0  0
    6.2508   -0.1710    0.0000 C   0  0  0  0  0  0  0  0  0  0  0  0
    4.9027   -0.8287    0.0000 C   0  0  0  0  0  0  0  0  0  0  0  0
    9.7287    4.3457    0.0000 C   0  0  0  0  0  0  0  0  0  0  0  0
    8.2954    5.1169    0.0000 C   0  0  0  0  0  0  0  0  0  0  0  0
    9.7561    5.4581    0.0000 O   0  0  0  0  0  0  0  0  0  0  0  0
    7.7403    6.5104    0.0000 N   0  0  0  0  0  0  0  0  0  0  0  0
    6.7992    7.6784    0.0000 C   0  0  0  0  0  0  0  0  0  0  0  0
    7.0522    9.1569    0.0000 C   0  0  0  0  0  0  0  0  0  0  0  0
    8.4591    9.6771    0.0000 C   0  0  0  0  0  0  0  0  0  0  0  0
    8.7121   11.1556    0.0000 C   0  0  0  0  0  0  0  0  0  0  0  0
   10.1190   11.6757    0.0000 N   0  0  0  0  0  0  0  0  0  0  0  0
   10.3720   13.1542    0.0000 C   0  0  0  0  0  0  0  0  0  0  0  0
   11.7790   13.6744    0.0000 N   0  0  0  0  0  0  0  0  0  0  0  0
    9.2181   14.1126    0.0000 N   0  0  0  0  0  0  0  0  0  0  0  0
    5.5556    8.5171    0.0000 C   0  0  0  0  0  0  0  0  0  0  0  0
    6.1996    9.8718    0.0000 O   0  0  0  0  0  0  0  0  0  0  0  0
    4.1200    8.9520    0.0000 N   0  0  0  0  0  0  0  0  0  0  0  0
    2.6200    8.9444    0.0000 C   0  0  0  0  0  0  0  0  0  0  0  0
    1.6218   10.0641    0.0000 C   0  0  0  0  0  0  0  0  0  0  0  0
    2.0923   11.4883    0.0000 C   0  0  0  0  0  0  0  0  0  0  0  0
    1.0941   12.6080    0.0000 C   0  0  0  0  0  0  0  0  0  0  0  0
    1.5647   14.0323    0.0000 N   0  0  0  0  0  0  0  0  0  0  0  0
    0.5665   15.1519    0.0000 C   0  0  0  0  0  0  0  0  0  0  0  0
    1.0370   16.5762    0.0000 N   0  0  0  0  0  0  0  0  0  0  0  0
   -0.9023   14.8473    0.0000 N   0  0  0  0  0  0  0  0  0  0  0  0
    1.1889    8.4950    0.0000 C   0  0  0  0  0  0  0  0  0  0  0  0
    0.5313    9.8432    0.0000 O   0  0  0  0  0  0  0  0  0  0  0  0
   -0.0462    7.6438    0.0000 N   0  0  0  0  0  0  0  0  0  0  0  0
   -0.9755    6.4663    0.0000 C   0  0  0  0  0  0  0  0  0  0  0  0
   -2.4732    6.3840    0.0000 C   0  0  0  0  0  0  0  0  0  0  0  0
   -1.5164    5.0673    0.0000 C   0  0  0  0  0  0  0  0  0  0  0  0
   -2.7662    5.8968    0.0000 O   0  0  0  0  0  0  0  0  0  0  0  0
   -1.6209    3.5709    0.0000 N   0  0  0  0  0  0  0  0  0  0  0  0
   -1.2798    2.1102    0.0000 C   0  0  0  0  0  0  0  0  0  0  0  0
   -0.5232    0.8150    0.0000 C   0  0  0  0  0  0  0  0  0  0  0  0
    0.5815   -0.1997    0.0000 C   0  0  0  0  0  0  0  0  0  0  0  0
    1.9363   -0.8437    0.0000 C   0  0  0  0  0  0  0  0  0  0  0  0
    3.4206   -1.0597    0.0000 C   0  0  0  0  0  0  0  0  0  0  0  0
   -0.8597    0.6703    0.0000 C   0  0  0  0  0  0  0  0  0  0  0  0
   -0.7197   -0.8232    0.0000 C   0  0  0  0  0  0  0  0  0  0  0  0
   -0.8649   -2.3161    0.0000 C   0  0  0  0  0  0  0  0  0  0  0  0
   -1.2900   -3.7546    0.0000 C   0  0  0  0  0  0  0  0  0  0  0  0
   -1.9648    3.4447    0.0000 C   0  0  0  0  0  0  0  0  0  0  0  0
   -0.7015    4.2534    0.0000 O   0  0  0  0  0  0  0  0  0  0  0  0
   -2.8900    4.6254    0.0000 N   0  0  0  0  0  0  0  0  0  0  0  0
   -4.0219    5.6096    0.0000 C   0  0  0  0  0  0  0  0  0  0  0  0
   -3.9241    7.1065    0.0000 C   0  0  0  0  0  0  0  0  0  0  0  0
   -5.1715    7.9395    0.0000 C   0  0  0  0  0  0  0  0  0  0  0  0
   -5.0738    9.4363    0.0000 C   0  0  0  0  0  0  0  0  0  0  0  0
   -6.3212   10.2694    0.0000 N   0  0  0  0  0  0  0  0  0  0  0  0
   -6.2234   11.7662    0.0000 C   0  0  0  0  0  0  0  0  0  0  0  0
   -7.2322   12.8763    0.0000 N   0  0  0  0  0  0  0  0  0  0  0  0
   -4.8783   12.4299    0.0000 N   0  0  0  0  0  0  0  0  0  0  0  0
   -5.3196    6.3619    0.0000 C   0  0  0  0  0  0  0  0  0  0  0  0
   -5.0426    7.8361    0.0000 O   0  0  0  0  0  0  0  0  0  0  0  0
   -6.7362    6.8550    0.0000 N   0  0  0  0  0  0  0  0  0  0  0  0
   -8.2206    7.0710    0.0000 C   0  0  0  0  0  0  0  0  0  0  0  0
   -8.9476    8.3831    0.0000 C   0  0  0  0  0  0  0  0  0  0  0  0
   -8.1748    9.6687    0.0000 C   0  0  0  0  0  0  0  0  0  0  0  0
   -8.9019   10.9808    0.0000 C   0  0  0  0  0  0  0  0  0  0  0  0
   -8.1291   12.2664    0.0000 N   0  0  0  0  0  0  0  0  0  0  0  0
   -8.8561   13.5784    0.0000 C   0  0  0  0  0  0  0  0  0  0  0  0
   -8.0833   14.8641    0.0000 N   0  0  0  0  0  0  0  0  0  0  0  0
  -10.3559   13.6048    0.0000 N   0  0  0  0  0  0  0  0  0  0  0  0
   -9.7190    7.0023    0.0000 C   0  0  0  0  0  0  0  0  0  0  0  0
  -10.1094    8.4506    0.0000 O   0  0  0  0  0  0  0  0  0  0  0  0
  -11.1774    6.6512    0.0000 N   0  0  0  0  0  0  0  0  0  0  0  0
  -12.5429    6.0304    0.0000 C   0  0  0  0  0  0  0  0  0  0  0  0
  -13.8638    6.7412    0.0000 C   0  0  0  0  0  0  0  0  0  0  0  0
  -13.9088    8.2405    0.0000 C   0  0  0  0  0  0  0  0  0  0  0  0
  -15.2297    8.9512    0.0000 C   0  0  0  0  0  0  0  0  0  0  0  0
  -15.2747   10.4505    0.0000 N   0  0  0  0  0  0  0  0  0  0  0  0
  -16.5957   11.1612    0.0000 C   0  0  0  0  0  0  0  0  0  0  0  0
  -16.6406   12.6605    0.0000 N   0  0  0  0  0  0  0  0  0  0  0  0
  -17.8716   10.3726    0.0000 N   0  0  0  0  0  0  0  0  0  0  0  0
  -13.7663    5.1625    0.0000 C   0  0  0  0  0  0  0  0  0  0  0  0
  -14.8777    6.1699    0.0000 O   0  0  0  0  0  0  0  0  0  0  0  0
  -14.8033    4.0787    0.0000 N   0  0  0  0  0  0  0  0  0  0  0  0
  -15.6164    2.8182    0.0000 C   0  0  0  0  0  0  0  0  0  0  0  0
  -17.1119    2.7020    0.0000 C   0  0  0  0  0  0  0  0  0  0  0  0
  -17.9604    3.9390    0.0000 C   0  0  0  0  0  0  0  0  0  0  0  0
  -17.4583    5.3524    0.0000 C   0  0  0  0  0  0  0  0  0  0  0  0
  -18.6475    6.2667    0.0000 N   0  0  0  0  0  0  0  0  0  0  0  0
  -19.8845    5.4183    0.0000 C   0  0  0  0  0  0  0  0  0  0  0  0
  -21.3427    5.7698    0.0000 C   0  0  0  0  0  0  0  0  0  0  0  0
  -22.3762    4.6828    0.0000 C   0  0  0  0  0  0  0  0  0  0  0  0
  -21.9516    3.2441    0.0000 C   0  0  0  0  0  0  0  0  0  0  0  0
  -20.4934    2.8926    0.0000 C   0  0  0  0  0  0  0  0  0  0  0  0
  -19.4598    3.9796    0.0000 C   0  0  0  0  0  0  0  0  0  0  0  0
  -16.1764    1.4266    0.0000 C   0  0  0  0  0  0  0  0  0  0  0  0
  -17.6559    1.6732    0.0000 O   0  0  0  0  0  0  0  0  0  0  0  0
  -16.4628   -0.0457    0.0000 N   0  0  0  0  0  0  0  0  0  0  0  0
  -16.4654   -1.5457    0.0000 C   0  0  0  0  0  0  0  0  0  0  0  0
  -17.6606   -2.4521    0.0000 C   0  0  0  0  0  0  0  0  0  0  0  0
  -19.0432   -1.8701    0.0000 C   0  0  0  0  0  0  0  0  0  0  0  0
  -20.2384   -2.7765    0.0000 C   0  0  0  0  0  0  0  0  0  0  0  0
  -21.6209   -2.1946    0.0000 N   0  0  0  0  0  0  0  0  0  0  0  0
  -22.8161   -3.1009    0.0000 C   0  0  0  0  0  0  0  0  0  0  0  0
  -24.1986   -2.5190    0.0000 N   0  0  0  0  0  0  0  0  0  0  0  0
  -22.6288   -4.5891    0.0000 N   0  0  0  0  0  0  0  0  0  0  0  0
  -16.1841   -3.0191    0.0000 C   0  0  0  0  0  0  0  0  0  0  0  0
  -17.5621   -3.6116    0.0000 O   0  0  0  0  0  0  0  0  0  0  0  0
  -15.6290   -4.4127    0.0000 N   0  0  0  0  0  0  0  0  0  0  0  0
  -14.8203   -5.6759    0.0000 C   0  0  0  0  0  0  0  0  0  0  0  0
  -15.3358   -7.0846    0.0000 C   0  0  0  0  0  0  0  0  0  0  0  0
  -16.8134   -7.3425    0.0000 C   0  0  0  0  0  0  0  0  0  0  0  0
  -17.3289   -8.7511    0.0000 C   0  0  0  0  0  0  0  0  0  0  0  0
  -18.8066   -9.0090    0.0000 O   0  0  0  0  0  0  0  0  0  0  0  0
  -16.3667   -9.9019    0.0000 O   0  0  0  0  0  0  0  0  0  0  0  0
  -13.7871   -6.7633    0.0000 C   0  0  0  0  0  0  0  0  0  0  0  0
  -14.6260   -8.0068    0.0000 O   0  0  0  0  0  0  0  0  0  0  0  0
  -12.5667   -7.6356    0.0000 N   0  0  0  0  0  0  0  0  0  0  0  0
  -11.2033   -8.2611    0.0000 C   0  0  0  0  0  0  0  0  0  0  0  0
   -9.7462   -8.6172    0.0000 C   0  0  0  0  0  0  0  0  0  0  0  0
   -8.2481   -8.6912    0.0000 C   0  0  0  0  0  0  0  0  0  0  0  0
   -6.7630   -8.4803    0.0000 C   0  0  0  0  0  0  0  0  0  0  0  0
   -5.3446   -7.9922    0.0000 C   0  0  0  0  0  0  0  0  0  0  0  0
   -4.0443   -7.2445    0.0000 C   0  0  0  0  0  0  0  0  0  0  0  0
   -2.9089   -6.2642    0.0000 C   0  0  0  0  0  0  0  0  0  0  0  0
   -1.9796   -5.0867    0.0000 C   0  0  0  0  0  0  0  0  0  0  0  0
  -12.3692   -9.2049    0.0000 C   0  0  0  0  0  0  0  0  0  0  0  0
  -10.8754   -9.7248    0.0000 C   0  0  0  0  0  0  0  0  0  0  0  0
   -9.5948  -10.5058    0.0000 O   0  0  0  0  0  0  0  0  0  0  0  0
  -11.9791  -10.7406    0.0000 N   0  0  0  0  0  0  0  0  0  0  0  0
  -11.6512  -12.2043    0.0000 C   0  0  0  0  0  0  0  0  0  0  0  0
  -10.8424  -13.4676    0.0000 C   0  0  0  0  0  0  0  0  0  0  0  0
  -11.5321  -14.7997    0.0000 C   0  0  0  0  0  0  0  0  0  0  0  0
  -10.7233  -16.0630    0.0000 C   0  0  0  0  0  0  0  0  0  0  0  0
  -11.2455  -17.4692    0.0000 N   0  0  0  0  0  0  0  0  0  0  0  0
   -9.2249  -15.9942    0.0000 O   0  0  0  0  0  0  0  0  0  0  0  0
  -12.7548  -13.2202    0.0000 C   0  0  0  0  0  0  0  0  0  0  0  0
  -14.1864  -12.7723    0.0000 O   0  0  0  0  0  0  0  0  0  0  0  0
  -12.4269  -14.6839    0.0000 N   0  0  0  0  0  0  0  0  0  0  0  0
  -13.5306  -15.6997    0.0000 C   0  0  0  0  0  0  0  0  0  0  0  0
  -14.9151  -16.2768    0.0000 C   0  0  0  0  0  0  0  0  0  0  0  0
  -16.1072  -15.3664    0.0000 C   0  0  0  0  0  0  0  0  0  0  0  0
  -17.4917  -15.9435    0.0000 C   0  0  0  0  0  0  0  0  0  0  0  0
  -18.6838  -15.0330    0.0000 N   0  0  0  0  0  0  0  0  0  0  0  0
  -20.0683  -15.6101    0.0000 C   0  0  0  0  0  0  0  0  0  0  0  0
  -21.2604  -14.6996    0.0000 N   0  0  0  0  0  0  0  0  0  0  0  0
  -20.2608  -17.0977    0.0000 N   0  0  0  0  0  0  0  0  0  0  0  0
  -13.2027  -17.1635    0.0000 C   0  0  0  0  0  0  0  0  0  0  0  0
  -14.1743  -18.3063    0.0000 O   0  0  0  0  0  0  0  0  0  0  0  0
  -11.8364  -17.7825    0.0000 O   0  0  0  0  0  0  0  0  0  0  0  0
   26.7785   -1.9290    0.0000 H   0  0  0  0  0  0  0  0  0  0  0  0
   26.4244   -6.4075    0.0000 H   0  0  0  0  0  0  0  0  0  0  0  0
   28.8249   -8.2068    0.0000 H   0  0  0  0  0  0  0  0  0  0  0  0
   29.1752   -2.2507    0.0000 H   0  0  0  0  0  0  0  0  0  0  0  0
   36.2826   -1.3574    0.0000 H   0  0  0  0  0  0  0  0  0  0  0  0
   36.7488   -6.5326    0.0000 H   0  0  0  0  0  0  0  0  0  0  0  0
   33.7609   -6.8017    0.0000 H   0  0  0  0  0  0  0  0  0  0  0  0
   38.8732   -5.0369    0.0000 H   0  0  0  0  0  0  0  0  0  0  0  0
   29.0459   -4.6178    0.0000 H   0  0  0  0  0  0  0  0  0  0  0  0
   27.3137   -1.9816    0.0000 H   0  0  0  0  0  0  0  0  0  0  0  0
   31.5677    0.8265    0.0000 H   0  0  0  0  0  0  0  0  0  0  0  0
   29.2102    1.9185    0.0000 H   0  0  0  0  0  0  0  0  0  0  0  0
   24.3818   -1.6297    0.0000 H   0  0  0  0  0  0  0  0  0  0  0  0
   23.6438   -4.9645    0.0000 H   0  0  0  0  0  0  0  0  0  0  0  0
   21.7292   -4.7344    0.0000 H   0  0  0  0  0  0  0  0  0  0  0  0
   22.7177   -1.7831    0.0000 H   0  0  0  0  0  0  0  0  0  0  0  0
   20.8032   -1.5530    0.0000 H   0  0  0  0  0  0  0  0  0  0  0  0
   19.2228   -1.0097    0.0000 H   0  0  0  0  0  0  0  0  0  0  0  0
   17.3234   -1.6279    0.0000 H   0  0  0  0  0  0  0  0  0  0  0  0
   17.2892   -5.2503    0.0000 H   0  0  0  0  0  0  0  0  0  0  0  0
   20.2615   -6.2400    0.0000 H   0  0  0  0  0  0  0  0  0  0  0  0
   20.9273   -5.4099    0.0000 H   0  0  0  0  0  0  0  0  0  0  0  0
   21.3617   -3.6725    0.0000 H   0  0  0  0  0  0  0  0  0  0  0  0
   20.0492   -2.7680    0.0000 H   0  0  0  0  0  0  0  0  0  0  0  0
   16.0242   -0.5768    0.0000 H   0  0  0  0  0  0  0  0  0  0  0  0
   14.0279   -0.5081    0.0000 H   0  0  0  0  0  0  0  0  0  0  0  0
   13.8309   -4.9144    0.0000 H   0  0  0  0  0  0  0  0  0  0  0  0
   12.7136   -3.7223    0.0000 H   0  0  0  0  0  0  0  0  0  0  0  0
   17.1234   -3.8106    0.0000 H   0  0  0  0  0  0  0  0  0  0  0  0
   16.1597   -2.4912    0.0000 H   0  0  0  0  0  0  0  0  0  0  0  0
   15.7879   -6.8429    0.0000 H   0  0  0  0  0  0  0  0  0  0  0  0
   14.4903   -5.6179    0.0000 H   0  0  0  0  0  0  0  0  0  0  0  0
   18.7125   -5.0580    0.0000 H   0  0  0  0  0  0  0  0  0  0  0  0
   19.5203   -9.1447    0.0000 H   0  0  0  0  0  0  0  0  0  0  0  0
   20.3905   -6.7993    0.0000 H   0  0  0  0  0  0  0  0  0  0  0  0
   16.9904   -9.7357    0.0000 H   0  0  0  0  0  0  0  0  0  0  0  0
   15.2136   -7.8401    0.0000 H   0  0  0  0  0  0  0  0  0  0  0  0
   13.1666    0.9240    0.0000 H   0  0  0  0  0  0  0  0  0  0  0  0
   11.3142    1.6713    0.0000 H   0  0  0  0  0  0  0  0  0  0  0  0
    9.7801   -2.4944    0.0000 H   0  0  0  0  0  0  0  0  0  0  0  0
    9.0220   -0.7213    0.0000 H   0  0  0  0  0  0  0  0  0  0  0  0
   13.0935   -2.4907    0.0000 H   0  0  0  0  0  0  0  0  0  0  0  0
   12.6391   -0.9213    0.0000 H   0  0  0  0  0  0  0  0  0  0  0  0
   12.5002   -5.9341    0.0000 H   0  0  0  0  0  0  0  0  0  0  0  0
   14.1903   -4.2393    0.0000 H   0  0  0  0  0  0  0  0  0  0  0  0
   11.0562    3.1391    0.0000 H   0  0  0  0  0  0  0  0  0  0  0  0
    9.5875    2.0978    0.0000 H   0  0  0  0  0  0  0  0  0  0  0  0
    8.8159    0.8457    0.0000 H   0  0  0  0  0  0  0  0  0  0  0  0
    8.5971    0.0284    0.0000 H   0  0  0  0  0  0  0  0  0  0  0  0
    7.9996   -0.4950    0.0000 H   0  0  0  0  0  0  0  0  0  0  0  0
    7.5555   -0.9112    0.0000 H   0  0  0  0  0  0  0  0  0  0  0  0
    6.2958   -1.6703    0.0000 H   0  0  0  0  0  0  0  0  0  0  0  0
    5.3521   -2.2598    0.0000 H   0  0  0  0  0  0  0  0  0  0  0  0
   11.0976    3.7323    0.0000 H   0  0  0  0  0  0  0  0  0  0  0  0
   10.7156    5.4754    0.0000 H   0  0  0  0  0  0  0  0  0  0  0  0
    9.0982    5.7067    0.0000 H   0  0  0  0  0  0  0  0  0  0  0  0
    9.0356    7.2670    0.0000 H   0  0  0  0  0  0  0  0  0  0  0  0
    8.2861    7.8761    0.0000 H   0  0  0  0  0  0  0  0  0  0  0  0
    6.6063   10.5891    0.0000 H   0  0  0  0  0  0  0  0  0  0  0  0
    5.5949    9.5125    0.0000 H   0  0  0  0  0  0  0  0  0  0  0  0
    9.9591    9.6847    0.0000 H   0  0  0  0  0  0  0  0  0  0  0  0
    8.9050    8.2449    0.0000 H   0  0  0  0  0  0  0  0  0  0  0  0
    8.4442   12.6315    0.0000 H   0  0  0  0  0  0  0  0  0  0  0  0
    7.2224   11.3309    0.0000 H   0  0  0  0  0  0  0  0  0  0  0  0
   11.2730   10.7174    0.0000 H   0  0  0  0  0  0  0  0  0  0  0  0
   12.0320   15.1529    0.0000 H   0  0  0  0  0  0  0  0  0  0  0  0
   12.9329   12.7160    0.0000 H   0  0  0  0  0  0  0  0  0  0  0  0
    9.4711   15.5911    0.0000 H   0  0  0  0  0  0  0  0  0  0  0  0
    7.8112   13.5925    0.0000 H   0  0  0  0  0  0  0  0  0  0  0  0
    4.3361   10.4364    0.0000 H   0  0  0  0  0  0  0  0  0  0  0  0
    3.3925   10.2302    0.0000 H   0  0  0  0  0  0  0  0  0  0  0  0
    0.2241   10.6084    0.0000 H   0  0  0  0  0  0  0  0  0  0  0  0
    0.4352    9.1464    0.0000 H   0  0  0  0  0  0  0  0  0  0  0  0
    3.0216   12.6658    0.0000 H   0  0  0  0  0  0  0  0  0  0  0  0
    3.4901   10.9439    0.0000 H   0  0  0  0  0  0  0  0  0  0  0  0
   -0.2268   13.3187    0.0000 H   0  0  0  0  0  0  0  0  0  0  0  0
    0.0282   11.5526    0.0000 H   0  0  0  0  0  0  0  0  0  0  0  0
    3.0334   14.3369    0.0000 H   0  0  0  0  0  0  0  0  0  0  0  0
    0.0388   17.6958    0.0000 H   0  0  0  0  0  0  0  0  0  0  0  0
    2.5057   16.8808    0.0000 H   0  0  0  0  0  0  0  0  0  0  0  0
   -1.9005   15.9669    0.0000 H   0  0  0  0  0  0  0  0  0  0  0  0
   -1.3728   13.4230    0.0000 H   0  0  0  0  0  0  0  0  0  0  0  0
   -1.0720    8.7382    0.0000 H   0  0  0  0  0  0  0  0  0  0  0  0
   -1.6665    7.7977    0.0000 H   0  0  0  0  0  0  0  0  0  0  0  0
   -3.1565    7.7320    0.0000 H   0  0  0  0  0  0  0  0  0  0  0  0
   -3.9541    6.1456    0.0000 H   0  0  0  0  0  0  0  0  0  0  0  0
   -2.6783    4.8981    0.0000 H   0  0  0  0  0  0  0  0  0  0  0  0
   -3.1162    3.4513    0.0000 H   0  0  0  0  0  0  0  0  0  0  0  0
   -0.8166   -0.6560    0.0000 H   0  0  0  0  0  0  0  0  0  0  0  0
   -2.0150    0.6581    0.0000 H   0  0  0  0  0  0  0  0  0  0  0  0
    0.7347   -1.6918    0.0000 H   0  0  0  0  0  0  0  0  0  0  0  0
   -0.4947   -1.2445    0.0000 H   0  0  0  0  0  0  0  0  0  0  0  0
    2.3498   -2.2855    0.0000 H   0  0  0  0  0  0  0  0  0  0  0  0
    1.2158   -2.1593    0.0000 H   0  0  0  0  0  0  0  0  0  0  0  0
    3.4282   -2.5597    0.0000 H   0  0  0  0  0  0  0  0  0  0  0  0
    0.2440    1.6861    0.0000 H   0  0  0  0  0  0  0  0  0  0  0  0
    0.4646   -0.0342    0.0000 H   0  0  0  0  0  0  0  0  0  0  0  0
    0.7542   -0.5443    0.0000 H   0  0  0  0  0  0  0  0  0  0  0  0
    0.4474   -1.7655    0.0000 H   0  0  0  0  0  0  0  0  0  0  0  0
    0.6351   -2.3213    0.0000 H   0  0  0  0  0  0  0  0  0  0  0  0
    0.2352   -3.3358    0.0000 H   0  0  0  0  0  0  0  0  0  0  0  0
    0.1016   -4.3146    0.0000 H   0  0  0  0  0  0  0  0  0  0  0  0
   -1.9366    5.7835    0.0000 H   0  0  0  0  0  0  0  0  0  0  0  0
   -2.7180    6.3512    0.0000 H   0  0  0  0  0  0  0  0  0  0  0  0
   -3.3203    8.4796    0.0000 H   0  0  0  0  0  0  0  0  0  0  0  0
   -2.4670    6.7503    0.0000 H   0  0  0  0  0  0  0  0  0  0  0  0
   -6.5743    8.4707    0.0000 H   0  0  0  0  0  0  0  0  0  0  0  0
   -6.0896    6.7533    0.0000 H   0  0  0  0  0  0  0  0  0  0  0  0
   -4.4700   10.8094    0.0000 H   0  0  0  0  0  0  0  0  0  0  0  0
   -3.5841    9.2604    0.0000 H   0  0  0  0  0  0  0  0  0  0  0  0
   -7.7870    9.9508    0.0000 H   0  0  0  0  0  0  0  0  0  0  0  0
   -7.3731   14.0961    0.0000 H   0  0  0  0  0  0  0  0  0  0  0  0
   -8.9966   12.3467    0.0000 H   0  0  0  0  0  0  0  0  0  0  0  0
   -4.7805   13.9268    0.0000 H   0  0  0  0  0  0  0  0  0  0  0  0
   -3.6309   11.5969    0.0000 H   0  0  0  0  0  0  0  0  0  0  0  0
   -6.3801    8.3121    0.0000 H   0  0  0  0  0  0  0  0  0  0  0  0
   -7.3679    8.3051    0.0000 H   0  0  0  0  0  0  0  0  0  0  0  0
  -10.0795    9.3674    0.0000 H   0  0  0  0  0  0  0  0  0  0  0  0
  -10.3072    7.7494    0.0000 H   0  0  0  0  0  0  0  0  0  0  0  0
   -7.2720   10.8666    0.0000 H   0  0  0  0  0  0  0  0  0  0  0  0
   -6.9314    8.8298    0.0000 H   0  0  0  0  0  0  0  0  0  0  0  0
  -10.0338   11.9650    0.0000 H   0  0  0  0  0  0  0  0  0  0  0  0
  -10.1741   10.1861    0.0000 H   0  0  0  0  0  0  0  0  0  0  0  0
   -6.6675   12.6037    0.0000 H   0  0  0  0  0  0  0  0  0  0  0  0
   -8.8104   16.1761    0.0000 H   0  0  0  0  0  0  0  0  0  0  0  0
   -6.5836   14.8376    0.0000 H   0  0  0  0  0  0  0  0  0  0  0  0
  -11.0829   14.9169    0.0000 H   0  0  0  0  0  0  0  0  0  0  0  0
  -11.1286   12.3192    0.0000 H   0  0  0  0  0  0  0  0  0  0  0  0
  -11.4889    8.1185    0.0000 H   0  0  0  0  0  0  0  0  0  0  0  0
  -12.3103    7.5123    0.0000 H   0  0  0  0  0  0  0  0  0  0  0  0
  -15.3482    6.9572    0.0000 H   0  0  0  0  0  0  0  0  0  0  0  0
  -14.6650    5.4730    0.0000 H   0  0  0  0  0  0  0  0  0  0  0  0
  -13.4383    9.6648    0.0000 H   0  0  0  0  0  0  0  0  0  0  0  0
  -12.4163    8.3900    0.0000 H   0  0  0  0  0  0  0  0  0  0  0  0
  -16.7141    9.1672    0.0000 H   0  0  0  0  0  0  0  0  0  0  0  0
  -15.8704    7.5949    0.0000 H   0  0  0  0  0  0  0  0  0  0  0  0
  -13.9988   11.2391    0.0000 H   0  0  0  0  0  0  0  0  0  0  0  0
  -17.9616   13.3713    0.0000 H   0  0  0  0  0  0  0  0  0  0  0  0
  -15.3647   13.4492    0.0000 H   0  0  0  0  0  0  0  0  0  0  0  0
  -19.1926   11.0833    0.0000 H   0  0  0  0  0  0  0  0  0  0  0  0
  -17.8267    8.8733    0.0000 H   0  0  0  0  0  0  0  0  0  0  0  0
  -15.8587    5.1446    0.0000 H   0  0  0  0  0  0  0  0  0  0  0  0
  -16.3847    4.1065    0.0000 H   0  0  0  0  0  0  0  0  0  0  0  0
  -18.5429    2.2523    0.0000 H   0  0  0  0  0  0  0  0  0  0  0  0
  -17.1003    1.2020    0.0000 H   0  0  0  0  0  0  0  0  0  0  0  0
  -16.0822    5.9493    0.0000 H   0  0  0  0  0  0  0  0  0  0  0  0
  -18.6068    7.7662    0.0000 H   0  0  0  0  0  0  0  0  0  0  0  0
  -21.7673    7.2085    0.0000 H   0  0  0  0  0  0  0  0  0  0  0  0
  -23.8345    5.0343    0.0000 H   0  0  0  0  0  0  0  0  0  0  0  0
  -22.9852    2.1570    0.0000 H   0  0  0  0  0  0  0  0  0  0  0  0
  -20.0687    1.4539    0.0000 H   0  0  0  0  0  0  0  0  0  0  0  0
  -17.9269    0.2803    0.0000 H   0  0  0  0  0  0  0  0  0  0  0  0
  -17.7167   -0.7186    0.0000 H   0  0  0  0  0  0  0  0  0  0  0  0
  -18.4738   -3.7125    0.0000 H   0  0  0  0  0  0  0  0  0  0  0  0
  -16.8400   -3.7077    0.0000 H   0  0  0  0  0  0  0  0  0  0  0  0
  -20.1433   -0.8505    0.0000 H   0  0  0  0  0  0  0  0  0  0  0  0
  -18.5592   -0.4504    0.0000 H   0  0  0  0  0  0  0  0  0  0  0  0
  -21.0515   -4.0369    0.0000 H   0  0  0  0  0  0  0  0  0  0  0  0
  -19.2708   -3.9227    0.0000 H   0  0  0  0  0  0  0  0  0  0  0  0
  -21.8082   -0.7063    0.0000 H   0  0  0  0  0  0  0  0  0  0  0  0
  -25.3939   -3.4253    0.0000 H   0  0  0  0  0  0  0  0  0  0  0  0
  -24.3859   -1.0307    0.0000 H   0  0  0  0  0  0  0  0  0  0  0  0
  -23.8241   -5.4955    0.0000 H   0  0  0  0  0  0  0  0  0  0  0  0
  -21.2463   -5.1711    0.0000 H   0  0  0  0  0  0  0  0  0  0  0  0
  -17.0370   -4.9299    0.0000 H   0  0  0  0  0  0  0  0  0  0  0  0
  -16.3202   -5.6566    0.0000 H   0  0  0  0  0  0  0  0  0  0  0  0
  -15.5212   -8.5731    0.0000 H   0  0  0  0  0  0  0  0  0  0  0  0
  -13.9665   -7.6972    0.0000 H   0  0  0  0  0  0  0  0  0  0  0  0
  -18.2902   -7.0794    0.0000 H   0  0  0  0  0  0  0  0  0  0  0  0
  -17.1738   -5.8864    0.0000 H   0  0  0  0  0  0  0  0  0  0  0  0
  -13.4715   -8.8319    0.0000 H   0  0  0  0  0  0  0  0  0  0  0  0
   -9.1472   -9.9924    0.0000 H   0  0  0  0  0  0  0  0  0  0  0  0
  -10.4061   -9.9643    0.0000 H   0  0  0  0  0  0  0  0  0  0  0  0
   -7.5568  -10.0224    0.0000 H   0  0  0  0  0  0  0  0  0  0  0  0
   -8.6410  -10.1388    0.0000 H   0  0  0  0  0  0  0  0  0  0  0  0
   -5.8322   -9.6566    0.0000 H   0  0  0  0  0  0  0  0  0  0  0  0
   -7.0564   -9.9514    0.0000 H   0  0  0  0  0  0  0  0  0  0  0  0
   -4.2081   -8.9711    0.0000 H   0  0  0  0  0  0  0  0  0  0  0  0
   -5.3543   -9.4922    0.0000 H   0  0  0  0  0  0  0  0  0  0  0  0
   -2.7430   -7.9906    0.0000 H   0  0  0  0  0  0  0  0  0  0  0  0
   -3.7699   -8.7192    0.0000 H   0  0  0  0  0  0  0  0  0  0  0  0
   -1.4413   -6.5739    0.0000 H   0  0  0  0  0  0  0  0  0  0  0  0
   -2.3605   -7.6603    0.0000 H   0  0  0  0  0  0  0  0  0  0  0  0
   -0.7192   -5.8999    0.0000 H   0  0  0  0  0  0  0  0  0  0  0  0
  -12.5003  -10.6991    0.0000 H   0  0  0  0  0  0  0  0  0  0  0  0
  -13.7876   -9.6930    0.0000 H   0  0  0  0  0  0  0  0  0  0  0  0
  -13.3921   -8.1077    0.0000 H   0  0  0  0  0  0  0  0  0  0  0  0
  -13.4546  -10.4706    0.0000 H   0  0  0  0  0  0  0  0  0  0  0  0
  -10.2666  -11.6272    0.0000 H   0  0  0  0  0  0  0  0  0  0  0  0
   -9.6504  -14.3781    0.0000 H   0  0  0  0  0  0  0  0  0  0  0  0
   -9.7388  -12.4518    0.0000 H   0  0  0  0  0  0  0  0  0  0  0  0
  -12.6357  -15.8155    0.0000 H   0  0  0  0  0  0  0  0  0  0  0  0
  -13.0121  -14.5556    0.0000 H   0  0  0  0  0  0  0  0  0  0  0  0
  -10.6042  -18.6583    0.0000 H   0  0  0  0  0  0  0  0  0  0  0  0
  -12.8632  -17.8671    0.0000 H   0  0  0  0  0  0  0  0  0  0  0  0
  -11.1463  -15.4649    0.0000 H   0  0  0  0  0  0  0  0  0  0  0  0
  -14.1793  -14.3473    0.0000 H   0  0  0  0  0  0  0  0  0  0  0  0
  -15.8867  -17.4196    0.0000 H   0  0  0  0  0  0  0  0  0  0  0  0
  -14.2664  -17.6293    0.0000 H   0  0  0  0  0  0  0  0  0  0  0  0
  -16.9159  -14.1031    0.0000 H   0  0  0  0  0  0  0  0  0  0  0  0
  -15.1356  -14.2236    0.0000 H   0  0  0  0  0  0  0  0  0  0  0  0
  -18.5954  -16.9593    0.0000 H   0  0  0  0  0  0  0  0  0  0  0  0
  -16.8430  -17.2959    0.0000 H   0  0  0  0  0  0  0  0  0  0  0  0
  -18.4913  -13.5454    0.0000 H   0  0  0  0  0  0  0  0  0  0  0  0
  -22.6449  -15.2767    0.0000 H   0  0  0  0  0  0  0  0  0  0  0  0
  -21.0679  -13.2120    0.0000 H   0  0  0  0  0  0  0  0  0  0  0  0
  -21.6453  -17.6748    0.0000 H   0  0  0  0  0  0  0  0  0  0  0  0
  -19.0687  -18.0082    0.0000 H   0  0  0  0  0  0  0  0  0  0  0  0
  1  2  1  0
  2  3  1  0
  3  4  2  0
  4  5  1  0
  5  6  2  0
  6  7  1  0
  7  8  2  0
  7  9  1  0
  9 10  1  0
 10 11  1  0
 11 12  2  0
  9 13  1  0
 13 14  1  0
 14 15  2  0
 15 16  1  0
 16 17  2  0
 17 18  1  0
 16 19  1  0
 14 20  1  0
 20 21  1  0
 21 22  2  0
 22 23  1  0
 23 24  2  0
 24 25  1  0
 25 26  2  0
 25 27  1  0
  1 28  2  0
  1 29  1  0
 29 30  1  0
 30 31  1  0
 31 32  1  0
 32 33  2  0
 32 34  1  0
 34 35  1  0
 35 36  1  0
 36 37  1  0
 36 38  1  0
 35 39  1  0
 39 40  2  0
 39 41  1  0
 41 42  1  0
 42 43  1  0
 43 44  1  0
 44 45  1  0
 45 46  1  0
 46 47  1  0
 47 48  2  3
 47 49  1  0
 42 50  1  0
 50 51  2  0
 50 52  1  0
 52 53  1  0
 53 54  1  0
 54 55  1  0
 55 56  1  0
 56 57  1  0
 56 58  2  0
 53 59  1  0
 59 60  2  0
 59 61  1  0
 62 61  1  1
 62 63  1  0
 63 64  1  0
 64 65  1  0
 65 66  1  0
 62 67  1  0
 62 68  1  0
 68 69  2  0
 68 70  1  0
 70 71  1  0
 71 72  1  0
 72 73  1  0
 73 74  1  0
 74 75  1  0
 75 76  1  0
 76 77  2  3
 76 78  1  0
 71 79  1  0
 79 80  2  0
 79 81  1  0
 81 82  1  0
 82 83  1  0
 83 84  1  0
 84 85  1  0
 85 86  1  0
 86 87  1  0
 87 88  2  3
 87 89  1  0
 82 90  1  0
 90 91  2  0
 90 92  1  0
 92 93  1  0
 93 94  1  0
 93 95  1  0
 95 96  2  0
 95 97  1  0
 97 98  1  0
 98 99  1  0
 99100  1  0
100101  1  0
101102  1  0
 98103  1  0
103104  1  0
104105  1  0
105106  1  0
 98107  1  0
107108  2  0
107109  1  0
109110  1  0
110111  1  0
111112  1  0
112113  1  0
113114  1  0
114115  1  0
115116  2  3
115117  1  0
110118  1  0
118119  2  0
118120  1  0
120121  1  0
121122  1  0
122123  1  0
123124  1  0
124125  1  0
125126  1  0
126127  2  3
126128  1  0
121129  1  0
129130  2  0
129131  1  0
131132  1  0
132133  1  0
133134  1  0
134135  1  0
135136  1  0
136137  1  0
137138  2  3
137139  1  0
132140  1  0
140141  2  0
140142  1  0
142143  1  0
143144  1  0
144145  1  0
145146  2  0
146147  1  0
147148  1  0
148149  2  0
149150  1  0
150151  2  0
151152  1  0
152153  2  0
143154  1  0
154155  2  0
154156  1  0
156157  1  0
157158  1  0
158159  1  0
159160  1  0
160161  1  0
161162  1  0
162163  2  3
162164  1  0
157165  1  0
165166  2  0
165167  1  0
167168  1  0
168169  1  0
169170  1  0
170171  1  0
171172  2  0
171173  1  0
168174  1  0
174175  2  0
174176  1  0
176177  1  0
177178  1  0
178179  1  0
179180  1  0
180181  1  0
181182  1  0
182183  1  0
183184  1  0
177185  1  0
177186  1  1
186187  2  0
186188  1  0
188189  1  0
189190  1  0
190191  1  0
191192  1  0
192193  1  0
192194  2  0
189195  1  0
195196  2  0
195197  1  0
197198  1  0
198199  1  0
199200  1  0
200201  1  0
201202  1  0
202203  1  0
203204  2  3
203205  1  0
198206  1  0
206207  2  0
206208  1  0
  8  3  1  0
153145  1  0
 11  6  1  0
153148  1  0
 18 13  2  0
 66102  2  0
 22  9  1  0
106184  2  0
 26 21  1  0
  2209  1  0
  4210  1  0
  5211  1  0
  8212  1  0
 15213  1  0
 17214  1  0
 18215  1  0
 19216  1  0
 23217  1  0
 24218  1  0
 26219  1  0
 27220  1  0
 29221  1  0
 30222  1  0
 30223  1  0
 31224  1  0
 31225  1  0
 34226  1  0
 35227  1  1
 36228  1  6
 37229  1  0
 38230  1  0
 38231  1  0
 38232  1  0
 41233  1  0
 42234  1  1
 43235  1  0
 43236  1  0
 44237  1  0
 44238  1  0
 45239  1  0
 45240  1  0
 46241  1  0
 48242  1  0
 48243  1  0
 49244  1  0
 49245  1  0
 52246  1  0
 53247  1  1
 54248  1  0
 54249  1  0
 55250  1  0
 55251  1  0
 57252  1  0
 57253  1  0
 61254  1  0
 63255  1  0
 63256  1  0
 64257  1  0
 64258  1  0
 65259  1  0
 65260  1  0
 66261  1  0
 67262  1  0
 67263  1  0
 67264  1  0
 70265  1  0
 71266  1  6
 72267  1  0
 72268  1  0
 73269  1  0
 73270  1  0
 74271  1  0
 74272  1  0
 75273  1  0
 77274  1  0
 77275  1  0
 78276  1  0
 78277  1  0
 81278  1  0
 82279  1  6
 83280  1  0
 83281  1  0
 84282  1  0
 84283  1  0
 85284  1  0
 85285  1  0
 86286  1  0
 88287  1  0
 88288  1  0
 89289  1  0
 89290  1  0
 92291  1  0
 93292  1  6
 94293  1  0
 94294  1  0
 94295  1  0
 97296  1  0
 99297  1  0
 99298  1  0
100299  1  0
100300  1  0
101301  1  0
101302  1  0
102303  1  0
103304  1  0
103305  1  0
104306  1  0
104307  1  0
105308  1  0
105309  1  0
106310  1  0
109311  1  0
110312  1  6
111313  1  0
111314  1  0
112315  1  0
112316  1  0
113317  1  0
113318  1  0
114319  1  0
116320  1  0
116321  1  0
117322  1  0
117323  1  0
120324  1  0
121325  1  6
122326  1  0
122327  1  0
123328  1  0
123329  1  0
124330  1  0
124331  1  0
125332  1  0
127333  1  0
127334  1  0
128335  1  0
128336  1  0
131337  1  0
132338  1  6
133339  1  0
133340  1  0
134341  1  0
134342  1  0
135343  1  0
135344  1  0
136345  1  0
138346  1  0
138347  1  0
139348  1  0
139349  1  0
142350  1  0
143351  1  6
144352  1  0
144353  1  0
146354  1  0
147355  1  0
149356  1  0
150357  1  0
151358  1  0
152359  1  0
156360  1  0
157361  1  6
158362  1  0
158363  1  0
159364  1  0
159365  1  0
160366  1  0
160367  1  0
161368  1  0
163369  1  0
163370  1  0
164371  1  0
164372  1  0
167373  1  0
168374  1  6
169375  1  0
169376  1  0
170377  1  0
170378  1  0
176379  1  0
178380  1  0
178381  1  0
179382  1  0
179383  1  0
180384  1  0
180385  1  0
181386  1  0
181387  1  0
182388  1  0
182389  1  0
183390  1  0
183391  1  0
184392  1  0
185393  1  0
185394  1  0
185395  1  0
188396  1  0
189397  1  1
190398  1  0
190399  1  0
191400  1  0
191401  1  0
193402  1  0
193403  1  0
197404  1  0
198405  1  6
199406  1  0
199407  1  0
200408  1  0
200409  1  0
201410  1  0
201411  1  0
202412  1  0
204413  1  0
204414  1  0
205415  1  0
205416  1  0
M  CHG  8  48   1  77   1  88   1 116   1 127   1 138   1 163   1 173  -1
M  CHG  2 204   1 208  -1
M  END
