
     RDKit          2D

460466  0  0  0  0  0  0  0  0999 V2000
   13.2439   11.0344    0.0000 C   0  0  0  0  0  0  0  0  0  0  0  0
   11.7571   11.2329    0.0000 N   0  0  0  0  0  0  0  0  0  0  0  0
   11.1856   12.6198    0.0000 C   0  0  0  0  0  0  0  0  0  0  0  0
    9.6988   12.8182    0.0000 C   0  0  0  0  0  0  0  0  0  0  0  0
    9.1273   14.2051    0.0000 C   0  0  0  0  0  0  0  0  0  0  0  0
   10.0426   15.3935    0.0000 C   0  0  0  0  0  0  0  0  0  0  0  0
   11.5294   15.1950    0.0000 C   0  0  0  0  0  0  0  0  0  0  0  0
   12.1009   13.8081    0.0000 C   0  0  0  0  0  0  0  0  0  0  0  0
   12.1776   16.5477    0.0000 C   0  0  0  0  0  0  0  0  0  0  0  0
   11.0914   17.5822    0.0000 O   0  0  0  0  0  0  0  0  0  0  0  0
    9.7719   16.8688    0.0000 C   0  0  0  0  0  0  0  0  0  0  0  0
    8.4192   17.5171    0.0000 O   0  0  0  0  0  0  0  0  0  0  0  0
   12.6808   17.9608    0.0000 C   0  0  0  0  0  0  0  0  0  0  0  0
   14.1562   18.2314    0.0000 C   0  0  0  0  0  0  0  0  0  0  0  0
   14.6595   19.6445    0.0000 C   0  0  0  0  0  0  0  0  0  0  0  0
   13.6874   20.7869    0.0000 C   0  0  0  0  0  0  0  0  0  0  0  0
   12.2120   20.5162    0.0000 C   0  0  0  0  0  0  0  0  0  0  0  0
   11.7087   19.1031    0.0000 C   0  0  0  0  0  0  0  0  0  0  0  0
   14.1906   22.1999    0.0000 O   0  0  0  0  0  0  0  0  0  0  0  0
   15.1283   17.0891    0.0000 O   0  0  0  0  0  0  0  0  0  0  0  0
   14.6251   15.6760    0.0000 C   0  0  0  0  0  0  0  0  0  0  0  0
   13.1497   15.4053    0.0000 C   0  0  0  0  0  0  0  0  0  0  0  0
   13.3349   14.1186    0.0000 C   0  0  0  0  0  0  0  0  0  0  0  0
   13.8534   13.5093    0.0000 C   0  0  0  0  0  0  0  0  0  0  0  0
   14.6403   13.6537    0.0000 C   0  0  0  0  0  0  0  0  0  0  0  0
   14.9087   14.4073    0.0000 C   0  0  0  0  0  0  0  0  0  0  0  0
   16.0660   11.9782    0.0000 O   0  0  0  0  0  0  0  0  0  0  0  0
   14.1592   12.2228    0.0000 S   0  0  0  0  0  0  0  0  0  0  0  0
   13.8154    9.6476    0.0000 N   0  0  0  0  0  0  0  0  0  0  0  0
   15.3022    9.4491    0.0000 C   0  0  0  0  0  0  0  0  0  0  0  0
   15.8738    8.0622    0.0000 C   0  0  0  0  0  0  0  0  0  0  0  0
   17.3606    7.8638    0.0000 C   0  0  0  0  0  0  0  0  0  0  0  0
   17.7664    8.5499    0.0000 O   0  0  0  0  0  0  0  0  0  0  0  0
   17.9321    6.4769    0.0000 N   0  0  0  0  0  0  0  0  0  0  0  0
   19.4189    6.2784    0.0000 C   0  0  0  0  0  0  0  0  0  0  0  0
   19.3562    7.7771    0.0000 C   0  0  0  0  0  0  0  0  0  0  0  0
   18.1216    8.6290    0.0000 O   0  0  0  0  0  0  0  0  0  0  0  0
   20.7482    5.5834    0.0000 C   0  0  0  0  0  0  0  0  0  0  0  0
   21.7826    6.6696    0.0000 O   0  0  0  0  0  0  0  0  0  0  0  0
   20.8109    4.0847    0.0000 N   0  0  0  0  0  0  0  0  0  0  0  0
   22.1401    3.3897    0.0000 C   0  0  0  0  0  0  0  0  0  0  0  0
   22.5938    4.8194    0.0000 C   0  0  0  0  0  0  0  0  0  0  0  0
   21.5824    5.9272    0.0000 C   0  0  0  0  0  0  0  0  0  0  0  0
   22.0361    7.3569    0.0000 C   0  0  0  0  0  0  0  0  0  0  0  0
   21.1672    8.5797    0.0000 O   0  0  0  0  0  0  0  0  0  0  0  0
   23.5011    7.6790    0.0000 O   0  0  0  0  0  0  0  0  0  0  0  0
   23.1515    2.2819    0.0000 C   0  0  0  0  0  0  0  0  0  0  0  0
   24.4951    2.9489    0.0000 O   0  0  0  0  0  0  0  0  0  0  0  0
   22.6979    0.8522    0.0000 N   0  0  0  0  0  0  0  0  0  0  0  0
   23.7093   -0.2556    0.0000 C   0  0  0  0  0  0  0  0  0  0  0  0
   24.6246    0.9328    0.0000 C   0  0  0  0  0  0  0  0  0  0  0  0
   24.0530    2.3197    0.0000 C   0  0  0  0  0  0  0  0  0  0  0  0
   24.9683    3.5080    0.0000 C   0  0  0  0  0  0  0  0  0  0  0  0
   24.5701    4.9542    0.0000 O   0  0  0  0  0  0  0  0  0  0  0  0
   26.4551    3.3096    0.0000 O   0  0  0  0  0  0  0  0  0  0  0  0
   24.2808   -1.6424    0.0000 C   0  0  0  0  0  0  0  0  0  0  0  0
   25.7714   -1.4752    0.0000 O   0  0  0  0  0  0  0  0  0  0  0  0
   23.3655   -2.8308    0.0000 N   0  0  0  0  0  0  0  0  0  0  0  0
   23.9370   -4.2177    0.0000 C   0  0  0  0  0  0  0  0  0  0  0  0
   25.2036   -3.4140    0.0000 C   0  0  0  0  0  0  0  0  0  0  0  0
   25.1408   -1.9153    0.0000 C   0  0  0  0  0  0  0  0  0  0  0  0
   26.4074   -1.1116    0.0000 C   0  0  0  0  0  0  0  0  0  0  0  0
   24.5693   -0.5285    0.0000 C   0  0  0  0  0  0  0  0  0  0  0  0
   23.9997   -5.7163    0.0000 C   0  0  0  0  0  0  0  0  0  0  0  0
   25.4038   -6.2442    0.0000 O   0  0  0  0  0  0  0  0  0  0  0  0
   22.7332   -6.5200    0.0000 N   0  0  0  0  0  0  0  0  0  0  0  0
   22.7959   -8.0187    0.0000 C   0  0  0  0  0  0  0  0  0  0  0  0
   24.2609   -7.6967    0.0000 C   0  0  0  0  0  0  0  0  0  0  0  0
   24.8855   -6.3329    0.0000 C   0  0  0  0  0  0  0  0  0  0  0  0
   22.3423   -9.4485    0.0000 C   0  0  0  0  0  0  0  0  0  0  0  0
   23.4811  -10.4247    0.0000 O   0  0  0  0  0  0  0  0  0  0  0  0
   20.8772   -9.7705    0.0000 N   0  0  0  0  0  0  0  0  0  0  0  0
   20.4236  -11.2002    0.0000 C   0  0  0  0  0  0  0  0  0  0  0  0
   21.9104  -11.3987    0.0000 C   0  0  0  0  0  0  0  0  0  0  0  0
   19.5083  -12.3886    0.0000 C   0  0  0  0  0  0  0  0  0  0  0  0
   20.3984  -13.5959    0.0000 O   0  0  0  0  0  0  0  0  0  0  0  0
   18.0215  -12.1901    0.0000 N   0  0  0  0  0  0  0  0  0  0  0  0
   17.1062  -13.3785    0.0000 C   0  0  0  0  0  0  0  0  0  0  0  0
   18.4355  -14.0735    0.0000 C   0  0  0  0  0  0  0  0  0  0  0  0
   19.7020  -13.2699    0.0000 C   0  0  0  0  0  0  0  0  0  0  0  0
   21.0313  -13.9649    0.0000 C   0  0  0  0  0  0  0  0  0  0  0  0
   22.3863  -13.3216    0.0000 O   0  0  0  0  0  0  0  0  0  0  0  0
   21.0940  -15.4636    0.0000 O   0  0  0  0  0  0  0  0  0  0  0  0
   15.8397  -14.1822    0.0000 C   0  0  0  0  0  0  0  0  0  0  0  0
   16.0846  -15.6620    0.0000 O   0  0  0  0  0  0  0  0  0  0  0  0
   14.5104  -13.4871    0.0000 N   0  0  0  0  0  0  0  0  0  0  0  0
   13.2438  -14.2908    0.0000 C   0  0  0  0  0  0  0  0  0  0  0  0
   14.4932  -15.1209    0.0000 C   0  0  0  0  0  0  0  0  0  0  0  0
   11.7788  -14.6128    0.0000 C   0  0  0  0  0  0  0  0  0  0  0  0
   11.6846  -16.1098    0.0000 O   0  0  0  0  0  0  0  0  0  0  0  0
   10.7674  -13.5051    0.0000 N   0  0  0  0  0  0  0  0  0  0  0  0
    9.3024  -13.8271    0.0000 C   0  0  0  0  0  0  0  0  0  0  0  0
    9.8739  -15.2139    0.0000 C   0  0  0  0  0  0  0  0  0  0  0  0
   11.3607  -15.4124    0.0000 C   0  0  0  0  0  0  0  0  0  0  0  0
   12.3952  -14.3262    0.0000 C   0  0  0  0  0  0  0  0  0  0  0  0
   13.7479  -14.9744    0.0000 N   0  0  0  0  0  0  0  0  0  0  0  0
   13.5495  -16.4612    0.0000 C   0  0  0  0  0  0  0  0  0  0  0  0
   12.0741  -16.7319    0.0000 N   0  0  0  0  0  0  0  0  0  0  0  0
    7.8156  -13.6286    0.0000 C   0  0  0  0  0  0  0  0  0  0  0  0
    7.2151  -15.0031    0.0000 O   0  0  0  0  0  0  0  0  0  0  0  0
    7.2441  -12.2417    0.0000 N   0  0  0  0  0  0  0  0  0  0  0  0
    5.7573  -12.0432    0.0000 C   0  0  0  0  0  0  0  0  0  0  0  0
    5.8200  -13.5419    0.0000 C   0  0  0  0  0  0  0  0  0  0  0  0
    7.1492  -14.2370    0.0000 C   0  0  0  0  0  0  0  0  0  0  0  0
    7.2120  -15.7357    0.0000 N   0  0  0  0  0  0  0  0  0  0  0  0
    8.5726  -13.7637    0.0000 O   0  0  0  0  0  0  0  0  0  0  0  0
    4.4280  -11.3482    0.0000 C   0  0  0  0  0  0  0  0  0  0  0  0
    3.3936  -12.4345    0.0000 O   0  0  0  0  0  0  0  0  0  0  0  0
    4.3653   -9.8495    0.0000 N   0  0  0  0  0  0  0  0  0  0  0  0
    3.0360   -9.1545    0.0000 C   0  0  0  0  0  0  0  0  0  0  0  0
    2.5824  -10.5843    0.0000 C   0  0  0  0  0  0  0  0  0  0  0  0
    3.5938  -11.6920    0.0000 C   0  0  0  0  0  0  0  0  0  0  0  0
    3.1401  -13.1218    0.0000 C   0  0  0  0  0  0  0  0  0  0  0  0
    4.9230  -12.3870    0.0000 C   0  0  0  0  0  0  0  0  0  0  0  0
    2.0246   -8.0468    0.0000 C   0  0  0  0  0  0  0  0  0  0  0  0
    0.6098   -8.5449    0.0000 O   0  0  0  0  0  0  0  0  0  0  0  0
    2.4783   -6.6170    0.0000 N   0  0  0  0  0  0  0  0  0  0  0  0
    1.4669   -5.5093    0.0000 C   0  0  0  0  0  0  0  0  0  0  0  0
    0.5516   -6.6976    0.0000 C   0  0  0  0  0  0  0  0  0  0  0  0
    0.9498   -8.1438    0.0000 S   0  0  0  0  0  0  0  0  0  0  0  0
    0.8954   -4.1224    0.0000 C   0  0  0  0  0  0  0  0  0  0  0  0
   -0.5953   -4.2896    0.0000 O   0  0  0  0  0  0  0  0  0  0  0  0
    1.8107   -2.9340    0.0000 N   0  0  0  0  0  0  0  0  0  0  0  0
    1.2392   -1.5472    0.0000 C   0  0  0  0  0  0  0  0  0  0  0  0
    0.2503   -2.6751    0.0000 C   0  0  0  0  0  0  0  0  0  0  0  0
   -0.9341   -3.5955    0.0000 C   0  0  0  0  0  0  0  0  0  0  0  0
   -2.2713   -4.2751    0.0000 C   0  0  0  0  0  0  0  0  0  0  0  0
   -3.7129   -4.6894    0.0000 C   0  0  0  0  0  0  0  0  0  0  0  0
   -5.2069   -4.8234    0.0000 C   0  0  0  0  0  0  0  0  0  0  0  0
   -6.6993   -4.6722    0.0000 C   0  0  0  0  0  0  0  0  0  0  0  0
   -8.1361   -4.2413    0.0000 C   0  0  0  0  0  0  0  0  0  0  0  0
    2.7356   -1.6509    0.0000 C   0  0  0  0  0  0  0  0  0  0  0  0
    1.9966   -0.2525    0.0000 C   0  0  0  0  0  0  0  0  0  0  0  0
    3.4242   -0.7129    0.0000 O   0  0  0  0  0  0  0  0  0  0  0  0
    2.4954    1.1622    0.0000 N   0  0  0  0  0  0  0  0  0  0  0  0
    2.7175    2.6456    0.0000 C   0  0  0  0  0  0  0  0  0  0  0  0
    4.0324    3.3673    0.0000 C   0  0  0  0  0  0  0  0  0  0  0  0
    5.3149    2.5894    0.0000 C   0  0  0  0  0  0  0  0  0  0  0  0
    6.6299    3.3111    0.0000 C   0  0  0  0  0  0  0  0  0  0  0  0
    6.2540    1.4198    0.0000 C   0  0  0  0  0  0  0  0  0  0  0  0
    2.6548    4.1443    0.0000 C   0  0  0  0  0  0  0  0  0  0  0  0
    4.1046    4.5288    0.0000 O   0  0  0  0  0  0  0  0  0  0  0  0
    2.3095    5.6041    0.0000 N   0  0  0  0  0  0  0  0  0  0  0  0
    1.6943    6.9721    0.0000 C   0  0  0  0  0  0  0  0  0  0  0  0
    2.4103    8.2902    0.0000 C   0  0  0  0  0  0  0  0  0  0  0  0
    3.9098    8.3291    0.0000 C   0  0  0  0  0  0  0  0  0  0  0  0
    4.6259    9.6472    0.0000 C   0  0  0  0  0  0  0  0  0  0  0  0
    5.3322    7.8528    0.0000 C   0  0  0  0  0  0  0  0  0  0  0  0
    0.8313    8.1990    0.0000 C   0  0  0  0  0  0  0  0  0  0  0  0
    1.8431    9.3063    0.0000 O   0  0  0  0  0  0  0  0  0  0  0  0
   -0.2483    9.2403    0.0000 N   0  0  0  0  0  0  0  0  0  0  0  0
   -1.5055   10.0586    0.0000 C   0  0  0  0  0  0  0  0  0  0  0  0
   -1.6157   11.5545    0.0000 C   0  0  0  0  0  0  0  0  0  0  0  0
   -0.3753   12.3979    0.0000 C   0  0  0  0  0  0  0  0  0  0  0  0
   -0.4856   13.8939    0.0000 C   0  0  0  0  0  0  0  0  0  0  0  0
    0.7548   14.7373    0.0000 O   0  0  0  0  0  0  0  0  0  0  0  0
   -1.8362   14.5464    0.0000 O   0  0  0  0  0  0  0  0  0  0  0  0
   -2.8948   10.6241    0.0000 C   0  0  0  0  0  0  0  0  0  0  0  0
   -2.6422   12.1027    0.0000 O   0  0  0  0  0  0  0  0  0  0  0  0
   -4.3660   10.9165    0.0000 N   0  0  0  0  0  0  0  0  0  0  0  0
   -5.8660   10.9251    0.0000 C   0  0  0  0  0  0  0  0  0  0  0  0
   -6.7675   12.1240    0.0000 C   0  0  0  0  0  0  0  0  0  0  0  0
   -6.1800   13.5042    0.0000 C   0  0  0  0  0  0  0  0  0  0  0  0
   -7.0815   14.7030    0.0000 N   0  0  0  0  0  0  0  0  0  0  0  0
   -4.6910   13.6854    0.0000 O   0  0  0  0  0  0  0  0  0  0  0  0
   -7.3405   10.6498    0.0000 C   0  0  0  0  0  0  0  0  0  0  0  0
   -7.9274   12.0302    0.0000 O   0  0  0  0  0  0  0  0  0  0  0  0
   -8.7363   10.1003    0.0000 N   0  0  0  0  0  0  0  0  0  0  0  0
  -10.0028    9.2967    0.0000 C   0  0  0  0  0  0  0  0  0  0  0  0
  -11.4094    9.8178    0.0000 C   0  0  0  0  0  0  0  0  0  0  0  0
  -11.0944    8.2678    0.0000 C   0  0  0  0  0  0  0  0  0  0  0  0
  -12.3344    9.1118    0.0000 O   0  0  0  0  0  0  0  0  0  0  0  0
  -11.9715    7.0510    0.0000 N   0  0  0  0  0  0  0  0  0  0  0  0
  -12.6025    5.6902    0.0000 C   0  0  0  0  0  0  0  0  0  0  0  0
  -14.0675    5.3682    0.0000 C   0  0  0  0  0  0  0  0  0  0  0  0
  -14.9363    6.5909    0.0000 C   0  0  0  0  0  0  0  0  0  0  0  0
  -15.3341    4.5645    0.0000 C   0  0  0  0  0  0  0  0  0  0  0  0
  -16.6633    5.2595    0.0000 C   0  0  0  0  0  0  0  0  0  0  0  0
  -12.9645    4.2345    0.0000 C   0  0  0  0  0  0  0  0  0  0  0  0
  -14.4480    4.4566    0.0000 O   0  0  0  0  0  0  0  0  0  0  0  0
  -13.0446    2.7367    0.0000 N   0  0  0  0  0  0  0  0  0  0  0  0
  -12.8397    1.2507    0.0000 C   0  0  0  0  0  0  0  0  0  0  0  0
  -12.3573   -0.1696    0.0000 C   0  0  0  0  0  0  0  0  0  0  0  0
  -11.6148   -1.4729    0.0000 C   0  0  0  0  0  0  0  0  0  0  0  0
  -10.6390   -2.6122    0.0000 C   0  0  0  0  0  0  0  0  0  0  0  0
   -9.4653   -3.5462    0.0000 C   0  0  0  0  0  0  0  0  0  0  0  0
  -14.2620    1.7270    0.0000 C   0  0  0  0  0  0  0  0  0  0  0  0
  -13.8980    0.1878    0.0000 C   0  0  0  0  0  0  0  0  0  0  0  0
  -13.8687   -1.3119    0.0000 O   0  0  0  0  0  0  0  0  0  0  0  0
  -15.3478    0.5729    0.0000 N   0  0  0  0  0  0  0  0  0  0  0  0
  -16.4061   -0.4901    0.0000 C   0  0  0  0  0  0  0  0  0  0  0  0
  -17.0371   -1.8509    0.0000 C   0  0  0  0  0  0  0  0  0  0  0  0
  -18.5311   -1.9849    0.0000 C   0  0  0  0  0  0  0  0  0  0  0  0
  -19.1621   -3.3457    0.0000 O   0  0  0  0  0  0  0  0  0  0  0  0
  -19.6654   -1.0033    0.0000 O   0  0  0  0  0  0  0  0  0  0  0  0
  -17.8558   -0.1050    0.0000 C   0  0  0  0  0  0  0  0  0  0  0  0
  -18.2472    1.3431    0.0000 O   0  0  0  0  0  0  0  0  0  0  0  0
  -18.9142   -1.1679    0.0000 N   0  0  0  0  0  0  0  0  0  0  0  0
  -20.3639   -0.7828    0.0000 C   0  0  0  0  0  0  0  0  0  0  0  0
  -21.5945    0.0749    0.0000 C   0  0  0  0  0  0  0  0  0  0  0  0
  -22.4575    1.3018    0.0000 O   0  0  0  0  0  0  0  0  0  0  0  0
  -23.0201   -0.3917    0.0000 C   0  0  0  0  0  0  0  0  0  0  0  0
  -21.4223   -1.8458    0.0000 C   0  0  0  0  0  0  0  0  0  0  0  0
  -21.0310   -3.2938    0.0000 O   0  0  0  0  0  0  0  0  0  0  0  0
  -22.8720   -1.4607    0.0000 N   0  0  0  0  0  0  0  0  0  0  0  0
  -23.9304   -2.5236    0.0000 C   0  0  0  0  0  0  0  0  0  0  0  0
  -24.5614   -3.8844    0.0000 C   0  0  0  0  0  0  0  0  0  0  0  0
  -26.0279   -4.1995    0.0000 C   0  0  0  0  0  0  0  0  0  0  0  0
  -25.3801   -2.1385    0.0000 C   0  0  0  0  0  0  0  0  0  0  0  0
  -25.7715   -0.6905    0.0000 O   0  0  0  0  0  0  0  0  0  0  0  0
  -26.4385   -3.2015    0.0000 N   0  0  0  0  0  0  0  0  0  0  0  0
  -27.8882   -2.8164    0.0000 C   0  0  0  0  0  0  0  0  0  0  0  0
  -29.1188   -1.9586    0.0000 C   0  0  0  0  0  0  0  0  0  0  0  0
  -28.9913   -0.4641    0.0000 C   0  0  0  0  0  0  0  0  0  0  0  0
  -30.2219    0.3936    0.0000 C   0  0  0  0  0  0  0  0  0  0  0  0
  -30.0944    1.8882    0.0000 N   0  0  0  0  0  0  0  0  0  0  0  0
  -31.3249    2.7459    0.0000 C   0  0  0  0  0  0  0  0  0  0  0  0
  -31.1974    4.2405    0.0000 N   0  0  0  0  0  0  0  0  0  0  0  0
  -32.6830    2.1091    0.0000 N   0  0  0  0  0  0  0  0  0  0  0  0
  -28.9466   -3.8793    0.0000 C   0  0  0  0  0  0  0  0  0  0  0  0
  -28.5552   -5.3273    0.0000 O   0  0  0  0  0  0  0  0  0  0  0  0
  -30.3963   -3.4942    0.0000 N   0  0  0  0  0  0  0  0  0  0  0  0
  -31.4547   -4.5571    0.0000 C   0  0  0  0  0  0  0  0  0  0  0  0
  -32.0857   -5.9180    0.0000 C   0  0  0  0  0  0  0  0  0  0  0  0
  -33.5797   -6.0519    0.0000 C   0  0  0  0  0  0  0  0  0  0  0  0
  -34.2107   -7.4128    0.0000 C   0  0  0  0  0  0  0  0  0  0  0  0
  -35.6772   -7.7278    0.0000 O   0  0  0  0  0  0  0  0  0  0  0  0
  -33.3476   -8.6396    0.0000 O   0  0  0  0  0  0  0  0  0  0  0  0
  -32.9044   -4.1720    0.0000 C   0  0  0  0  0  0  0  0  0  0  0  0
  -33.2958   -2.7240    0.0000 O   0  0  0  0  0  0  0  0  0  0  0  0
  -33.9628   -5.2350    0.0000 N   0  0  0  0  0  0  0  0  0  0  0  0
  -35.4125   -4.8499    0.0000 C   0  0  0  0  0  0  0  0  0  0  0  0
  -36.6431   -3.9922    0.0000 C   0  0  0  0  0  0  0  0  0  0  0  0
  -36.5156   -2.4976    0.0000 C   0  0  0  0  0  0  0  0  0  0  0  0
  -37.7461   -1.6399    0.0000 C   0  0  0  0  0  0  0  0  0  0  0  0
  -37.6186   -0.1453    0.0000 N   0  0  0  0  0  0  0  0  0  0  0  0
  -39.1042   -2.2768    0.0000 O   0  0  0  0  0  0  0  0  0  0  0  0
  -36.4709   -5.9128    0.0000 C   0  0  0  0  0  0  0  0  0  0  0  0
  -37.9567   -5.7073    0.0000 O   0  0  0  0  0  0  0  0  0  0  0  0
  -36.2589   -7.3978    0.0000 O   0  0  0  0  0  0  0  0  0  0  0  0
   10.8418   10.0445    0.0000 H   0  0  0  0  0  0  0  0  0  0  0  0
    8.7835   11.6299    0.0000 H   0  0  0  0  0  0  0  0  0  0  0  0
    7.6405   14.4036    0.0000 H   0  0  0  0  0  0  0  0  0  0  0  0
   13.4955   13.2558    0.0000 H   0  0  0  0  0  0  0  0  0  0  0  0
   16.1349   19.9152    0.0000 H   0  0  0  0  0  0  0  0  0  0  0  0
   11.2399   21.6585    0.0000 H   0  0  0  0  0  0  0  0  0  0  0  0
   10.2334   18.8324    0.0000 H   0  0  0  0  0  0  0  0  0  0  0  0
   13.2185   23.3423    0.0000 H   0  0  0  0  0  0  0  0  0  0  0  0
   11.1710   13.7216    0.0000 H   0  0  0  0  0  0  0  0  0  0  0  0
   13.4721   11.3571    0.0000 H   0  0  0  0  0  0  0  0  0  0  0  0
   17.0725   14.8043    0.0000 H   0  0  0  0  0  0  0  0  0  0  0  0
   17.5414   12.2489    0.0000 H   0  0  0  0  0  0  0  0  0  0  0  0
   12.9001    8.4592    0.0000 H   0  0  0  0  0  0  0  0  0  0  0  0
   15.2395   10.9478    0.0000 H   0  0  0  0  0  0  0  0  0  0  0  0
   16.7673    9.7711    0.0000 H   0  0  0  0  0  0  0  0  0  0  0  0
   14.4087    7.7402    0.0000 H   0  0  0  0  0  0  0  0  0  0  0  0
   15.9365    6.5635    0.0000 H   0  0  0  0  0  0  0  0  0  0  0  0
   17.0168    5.2885    0.0000 H   0  0  0  0  0  0  0  0  0  0  0  0
   18.9653    4.8487    0.0000 H   0  0  0  0  0  0  0  0  0  0  0  0
   19.8098    9.2069    0.0000 H   0  0  0  0  0  0  0  0  0  0  0  0
   20.8561    7.7614    0.0000 H   0  0  0  0  0  0  0  0  0  0  0  0
   17.9642    9.9708    0.0000 H   0  0  0  0  0  0  0  0  0  0  0  0
   19.5443    3.2810    0.0000 H   0  0  0  0  0  0  0  0  0  0  0  0
   21.2249    2.2013    0.0000 H   0  0  0  0  0  0  0  0  0  0  0  0
   23.5091    6.0078    0.0000 H   0  0  0  0  0  0  0  0  0  0  0  0
   23.9979    4.2916    0.0000 H   0  0  0  0  0  0  0  0  0  0  0  0
   20.2531    6.6222    0.0000 H   0  0  0  0  0  0  0  0  0  0  0  0
   20.4068    4.9956    0.0000 H   0  0  0  0  0  0  0  0  0  0  0  0
   21.2329    0.5302    0.0000 H   0  0  0  0  0  0  0  0  0  0  0  0
   22.3542   -0.8989    0.0000 H   0  0  0  0  0  0  0  0  0  0  0  0
   25.8911    1.7365    0.0000 H   0  0  0  0  0  0  0  0  0  0  0  0
   25.8739    0.1027    0.0000 H   0  0  0  0  0  0  0  0  0  0  0  0
   23.0417    3.4274    0.0000 H   0  0  0  0  0  0  0  0  0  0  0  0
   22.6297    1.8464    0.0000 H   0  0  0  0  0  0  0  0  0  0  0  0
   21.8787   -2.6323    0.0000 H   0  0  0  0  0  0  0  0  0  0  0  0
   22.4720   -4.5397    0.0000 H   0  0  0  0  0  0  0  0  0  0  0  0
   26.6969   -3.2730    0.0000 H   0  0  0  0  0  0  0  0  0  0  0  0
   25.7751   -4.8009    0.0000 H   0  0  0  0  0  0  0  0  0  0  0  0
   23.6414   -1.8733    0.0000 H   0  0  0  0  0  0  0  0  0  0  0  0
   26.7092    0.3577    0.0000 H   0  0  0  0  0  0  0  0  0  0  0  0
   27.8724   -0.7896    0.0000 H   0  0  0  0  0  0  0  0  0  0  0  0
   27.1437   -2.4185    0.0000 H   0  0  0  0  0  0  0  0  0  0  0  0
   25.4846    0.6599    0.0000 H   0  0  0  0  0  0  0  0  0  0  0  0
   23.8560    0.7911    0.0000 H   0  0  0  0  0  0  0  0  0  0  0  0
   23.4102   -1.4805    0.0000 H   0  0  0  0  0  0  0  0  0  0  0  0
   21.4039   -5.8250    0.0000 H   0  0  0  0  0  0  0  0  0  0  0  0
   21.3091   -7.8202    0.0000 H   0  0  0  0  0  0  0  0  0  0  0  0
   25.7478   -7.8952    0.0000 H   0  0  0  0  0  0  0  0  0  0  0  0
   24.3237   -9.1954    0.0000 H   0  0  0  0  0  0  0  0  0  0  0  0
   26.1796   -5.9449    0.0000 H   0  0  0  0  0  0  0  0  0  0  0  0
   24.6519   -4.7682    0.0000 H   0  0  0  0  0  0  0  0  0  0  0  0
   23.3410   -5.6752    0.0000 H   0  0  0  0  0  0  0  0  0  0  0  0
   19.8659   -8.6627    0.0000 H   0  0  0  0  0  0  0  0  0  0  0  0
   19.0943  -10.5052    0.0000 H   0  0  0  0  0  0  0  0  0  0  0  0
   22.9637  -10.3308    0.0000 H   0  0  0  0  0  0  0  0  0  0  0  0
   23.2397  -12.0937    0.0000 H   0  0  0  0  0  0  0  0  0  0  0  0
   21.6344  -12.8731    0.0000 H   0  0  0  0  0  0  0  0  0  0  0  0
   17.4500  -10.8033    0.0000 H   0  0  0  0  0  0  0  0  0  0  0  0
   16.0948  -12.2707    0.0000 H   0  0  0  0  0  0  0  0  0  0  0  0
   19.4468  -15.1813    0.0000 H   0  0  0  0  0  0  0  0  0  0  0  0
   17.5202  -15.2619    0.0000 H   0  0  0  0  0  0  0  0  0  0  0  0
   20.6173  -12.0815    0.0000 H   0  0  0  0  0  0  0  0  0  0  0  0
   18.9887  -11.9503    0.0000 H   0  0  0  0  0  0  0  0  0  0  0  0
   14.4477  -11.9884    0.0000 H   0  0  0  0  0  0  0  0  0  0  0  0
   12.8456  -12.8446    0.0000 H   0  0  0  0  0  0  0  0  0  0  0  0
   15.7165  -15.2264    0.0000 H   0  0  0  0  0  0  0  0  0  0  0  0
   15.0272  -16.7323    0.0000 H   0  0  0  0  0  0  0  0  0  0  0  0
   13.2950  -16.5341    0.0000 H   0  0  0  0  0  0  0  0  0  0  0  0
   11.2211  -12.0753    0.0000 H   0  0  0  0  0  0  0  0  0  0  0  0
    9.2397  -12.3284    0.0000 H   0  0  0  0  0  0  0  0  0  0  0  0
    9.9366  -16.7126    0.0000 H   0  0  0  0  0  0  0  0  0  0  0  0
    8.4591  -15.7121    0.0000 H   0  0  0  0  0  0  0  0  0  0  0  0
   11.9467  -12.8948    0.0000 H   0  0  0  0  0  0  0  0  0  0  0  0
   15.2009  -14.6016    0.0000 H   0  0  0  0  0  0  0  0  0  0  0  0
   14.5015  -17.6204    0.0000 H   0  0  0  0  0  0  0  0  0  0  0  0
    8.1594  -11.0534    0.0000 H   0  0  0  0  0  0  0  0  0  0  0  0
    6.3818  -10.6795    0.0000 H   0  0  0  0  0  0  0  0  0  0  0  0
    5.3663  -14.9717    0.0000 H   0  0  0  0  0  0  0  0  0  0  0  0
    4.3293  -13.7091    0.0000 H   0  0  0  0  0  0  0  0  0  0  0  0
    8.4466  -16.5875    0.0000 H   0  0  0  0  0  0  0  0  0  0  0  0
    5.9454  -16.5393    0.0000 H   0  0  0  0  0  0  0  0  0  0  0  0
    5.6318   -9.0459    0.0000 H   0  0  0  0  0  0  0  0  0  0  0  0
    3.9513   -7.9661    0.0000 H   0  0  0  0  0  0  0  0  0  0  0  0
    1.5291  -11.6522    0.0000 H   0  0  0  0  0  0  0  0  0  0  0  0
    1.2531   -9.8892    0.0000 H   0  0  0  0  0  0  0  0  0  0  0  0
    4.7694  -10.7604    0.0000 H   0  0  0  0  0  0  0  0  0  0  0  0
    3.8534  -14.4413    0.0000 H   0  0  0  0  0  0  0  0  0  0  0  0
    2.2248  -14.3101    0.0000 H   0  0  0  0  0  0  0  0  0  0  0  0
    1.7360  -12.5940    0.0000 H   0  0  0  0  0  0  0  0  0  0  0  0
    4.9857  -13.8857    0.0000 H   0  0  0  0  0  0  0  0  0  0  0  0
    6.3176  -12.9394    0.0000 H   0  0  0  0  0  0  0  0  0  0  0  0
    5.1990  -10.9126    0.0000 H   0  0  0  0  0  0  0  0  0  0  0  0
    3.9433   -6.2950    0.0000 H   0  0  0  0  0  0  0  0  0  0  0  0
    2.7334   -4.7056    0.0000 H   0  0  0  0  0  0  0  0  0  0  0  0
   -0.7149   -7.5013    0.0000 H   0  0  0  0  0  0  0  0  0  0  0  0
   -0.4598   -5.5899    0.0000 H   0  0  0  0  0  0  0  0  0  0  0  0
    0.2078   -9.2729    0.0000 H   0  0  0  0  0  0  0  0  0  0  0  0
    3.2622   -3.3123    0.0000 H   0  0  0  0  0  0  0  0  0  0  0  0
    1.5638   -3.3996    0.0000 H   0  0  0  0  0  0  0  0  0  0  0  0
    0.3677   -4.1705    0.0000 H   0  0  0  0  0  0  0  0  0  0  0  0
    0.0929   -4.6888    0.0000 H   0  0  0  0  0  0  0  0  0  0  0  0
   -0.9189   -5.0954    0.0000 H   0  0  0  0  0  0  0  0  0  0  0  0
   -1.0685   -5.1715    0.0000 H   0  0  0  0  0  0  0  0  0  0  0  0
   -2.3584   -5.7726    0.0000 H   0  0  0  0  0  0  0  0  0  0  0  0
   -2.8441   -5.9122    0.0000 H   0  0  0  0  0  0  0  0  0  0  0  0
   -4.0819   -6.1433    0.0000 H   0  0  0  0  0  0  0  0  0  0  0  0
   -4.5852   -6.1885    0.0000 H   0  0  0  0  0  0  0  0  0  0  0  0
   -5.8444   -6.1812    0.0000 H   0  0  0  0  0  0  0  0  0  0  0  0
   -6.3472   -6.1303    0.0000 H   0  0  0  0  0  0  0  0  0  0  0  0
   -7.7234   -5.7682    0.0000 H   0  0  0  0  0  0  0  0  0  0  0  0
   -8.7016   -5.6306    0.0000 H   0  0  0  0  0  0  0  0  0  0  0  0
    3.5533   -2.9085    0.0000 H   0  0  0  0  0  0  0  0  0  0  0  0
    4.2170   -1.4155    0.0000 H   0  0  0  0  0  0  0  0  0  0  0  0
    2.9436   -0.1654    0.0000 H   0  0  0  0  0  0  0  0  0  0  0  0
    3.8961    0.6254    0.0000 H   0  0  0  0  0  0  0  0  0  0  0  0
    3.8343    1.6443    0.0000 H   0  0  0  0  0  0  0  0  0  0  0  0
    5.0213    4.4953    0.0000 H   0  0  0  0  0  0  0  0  0  0  0  0
    3.4043    4.7295    0.0000 H   0  0  0  0  0  0  0  0  0  0  0  0
    4.6284    1.2557    0.0000 H   0  0  0  0  0  0  0  0  0  0  0  0
    7.9977    2.6953    0.0000 H   0  0  0  0  0  0  0  0  0  0  0  0
    7.6187    4.4391    0.0000 H   0  0  0  0  0  0  0  0  0  0  0  0
    5.8404    4.5865    0.0000 H   0  0  0  0  0  0  0  0  0  0  0  0
    7.7533    1.4658    0.0000 H   0  0  0  0  0  0  0  0  0  0  0  0
    6.7364   -0.0006    0.0000 H   0  0  0  0  0  0  0  0  0  0  0  0
    4.9391    0.6980    0.0000 H   0  0  0  0  0  0  0  0  0  0  0  0
    3.7781    5.9097    0.0000 H   0  0  0  0  0  0  0  0  0  0  0  0
    3.1752    6.7335    0.0000 H   0  0  0  0  0  0  0  0  0  0  0  0
    2.6324    9.7736    0.0000 H   0  0  0  0  0  0  0  0  0  0  0  0
    1.1455    9.0964    0.0000 H   0  0  0  0  0  0  0  0  0  0  0  0
    4.0534    6.8360    0.0000 H   0  0  0  0  0  0  0  0  0  0  0  0
    6.1094    9.8686    0.0000 H   0  0  0  0  0  0  0  0  0  0  0  0
    4.8479   11.1306    0.0000 H   0  0  0  0  0  0  0  0  0  0  0  0
    3.2721   10.2933    0.0000 H   0  0  0  0  0  0  0  0  0  0  0  0
    6.5686    8.7021    0.0000 H   0  0  0  0  0  0  0  0  0  0  0  0
    6.5059    6.9188    0.0000 H   0  0  0  0  0  0  0  0  0  0  0  0
    4.6162    6.5347    0.0000 H   0  0  0  0  0  0  0  0  0  0  0  0
    0.8218   10.2914    0.0000 H   0  0  0  0  0  0  0  0  0  0  0  0
   -0.1307   10.6585    0.0000 H   0  0  0  0  0  0  0  0  0  0  0  0
   -2.0596   12.9873    0.0000 H   0  0  0  0  0  0  0  0  0  0  0  0
   -3.1157   11.5490    0.0000 H   0  0  0  0  0  0  0  0  0  0  0  0
    1.0788   12.7663    0.0000 H   0  0  0  0  0  0  0  0  0  0  0  0
    0.5527   11.2194    0.0000 H   0  0  0  0  0  0  0  0  0  0  0  0
   -4.2148   12.4088    0.0000 H   0  0  0  0  0  0  0  0  0  0  0  0
   -5.1922   12.2652    0.0000 H   0  0  0  0  0  0  0  0  0  0  0  0
   -7.9156   13.0894    0.0000 H   0  0  0  0  0  0  0  0  0  0  0  0
   -8.0264   11.3084    0.0000 H   0  0  0  0  0  0  0  0  0  0  0  0
   -6.4940   16.0832    0.0000 H   0  0  0  0  0  0  0  0  0  0  0  0
   -8.5705   14.5217    0.0000 H   0  0  0  0  0  0  0  0  0  0  0  0
   -9.4159   11.4375    0.0000 H   0  0  0  0  0  0  0  0  0  0  0  0
  -10.1604   10.7883    0.0000 H   0  0  0  0  0  0  0  0  0  0  0  0
  -11.6613   11.2965    0.0000 H   0  0  0  0  0  0  0  0  0  0  0  0
  -12.8971   10.0093    0.0000 H   0  0  0  0  0  0  0  0  0  0  0  0
  -12.0274    8.4511    0.0000 H   0  0  0  0  0  0  0  0  0  0  0  0
  -13.1642    7.9607    0.0000 H   0  0  0  0  0  0  0  0  0  0  0  0
  -13.3920    6.9656    0.0000 H   0  0  0  0  0  0  0  0  0  0  0  0
  -13.8486    3.8842    0.0000 H   0  0  0  0  0  0  0  0  0  0  0  0
  -16.5852    6.3531    0.0000 H   0  0  0  0  0  0  0  0  0  0  0  0
  -15.6504    7.8628    0.0000 H   0  0  0  0  0  0  0  0  0  0  0  0
  -14.0445    7.5622    0.0000 H   0  0  0  0  0  0  0  0  0  0  0  0
  -16.2493    3.3761    0.0000 H   0  0  0  0  0  0  0  0  0  0  0  0
  -14.3227    3.4568    0.0000 H   0  0  0  0  0  0  0  0  0  0  0  0
  -17.9299    4.4559    0.0000 H   0  0  0  0  0  0  0  0  0  0  0  0
  -17.6747    6.3673    0.0000 H   0  0  0  0  0  0  0  0  0  0  0  0
  -16.0628    6.6341    0.0000 H   0  0  0  0  0  0  0  0  0  0  0  0
  -14.5432    2.6739    0.0000 H   0  0  0  0  0  0  0  0  0  0  0  0
  -13.1953   -1.4136    0.0000 H   0  0  0  0  0  0  0  0  0  0  0  0
  -13.8479   -0.3368    0.0000 H   0  0  0  0  0  0  0  0  0  0  0  0
  -12.3661   -2.7712    0.0000 H   0  0  0  0  0  0  0  0  0  0  0  0
  -13.0468   -1.9192    0.0000 H   0  0  0  0  0  0  0  0  0  0  0  0
  -10.9547   -4.0786    0.0000 H   0  0  0  0  0  0  0  0  0  0  0  0
  -12.0374   -3.1550    0.0000 H   0  0  0  0  0  0  0  0  0  0  0  0
  -10.2836   -4.8034    0.0000 H   0  0  0  0  0  0  0  0  0  0  0  0
  -15.5927    1.0347    0.0000 H   0  0  0  0  0  0  0  0  0  0  0  0
  -15.4357    2.6610    0.0000 H   0  0  0  0  0  0  0  0  0  0  0  0
  -13.7120    3.1225    0.0000 H   0  0  0  0  0  0  0  0  0  0  0  0
  -15.9127    1.9624    0.0000 H   0  0  0  0  0  0  0  0  0  0  0  0
  -15.1755   -1.3478    0.0000 H   0  0  0  0  0  0  0  0  0  0  0  0
  -17.1646   -3.3455    0.0000 H   0  0  0  0  0  0  0  0  0  0  0  0
  -15.5874   -2.2360    0.0000 H   0  0  0  0  0  0  0  0  0  0  0  0
  -18.8849   -2.6676    0.0000 H   0  0  0  0  0  0  0  0  0  0  0  0
  -19.7329    0.5780    0.0000 H   0  0  0  0  0  0  0  0  0  0  0  0
  -20.5362    1.1378    0.0000 H   0  0  0  0  0  0  0  0  0  0  0  0
  -21.8265    2.6626    0.0000 H   0  0  0  0  0  0  0  0  0  0  0  0
  -24.1832    0.2957    0.0000 H   0  0  0  0  0  0  0  0  0  0  0  0
  -24.0110   -1.6249    0.0000 H   0  0  0  0  0  0  0  0  0  0  0  0
  -22.7668   -2.0504    0.0000 H   0  0  0  0  0  0  0  0  0  0  0  0
  -23.4370   -0.0711    0.0000 H   0  0  0  0  0  0  0  0  0  0  0  0
  -22.6998   -3.3813    0.0000 H   0  0  0  0  0  0  0  0  0  0  0  0
  -24.6889   -5.3790    0.0000 H   0  0  0  0  0  0  0  0  0  0  0  0
  -23.1117   -4.2695    0.0000 H   0  0  0  0  0  0  0  0  0  0  0  0
  -26.6864   -5.3792    0.0000 H   0  0  0  0  0  0  0  0  0  0  0  0
  -27.5051   -3.6333    0.0000 H   0  0  0  0  0  0  0  0  0  0  0  0
  -26.6446   -2.6390    0.0000 H   0  0  0  0  0  0  0  0  0  0  0  0
  -26.2266   -4.6864    0.0000 H   0  0  0  0  0  0  0  0  0  0  0  0
  -27.0960   -1.5426    0.0000 H   0  0  0  0  0  0  0  0  0  0  0  0
  -30.5685   -1.5735    0.0000 H   0  0  0  0  0  0  0  0  0  0  0  0
  -30.0603   -3.1263    0.0000 H   0  0  0  0  0  0  0  0  0  0  0  0
  -28.3603    0.8968    0.0000 H   0  0  0  0  0  0  0  0  0  0  0  0
  -27.5054   -0.6696    0.0000 H   0  0  0  0  0  0  0  0  0  0  0  0
  -31.6716    0.7787    0.0000 H   0  0  0  0  0  0  0  0  0  0  0  0
  -31.0140   -0.8801    0.0000 H   0  0  0  0  0  0  0  0  0  0  0  0
  -28.7363    2.5251    0.0000 H   0  0  0  0  0  0  0  0  0  0  0  0
  -32.4280    5.0982    0.0000 H   0  0  0  0  0  0  0  0  0  0  0  0
  -29.8393    4.8774    0.0000 H   0  0  0  0  0  0  0  0  0  0  0  0
  -33.9136    2.9668    0.0000 H   0  0  0  0  0  0  0  0  0  0  0  0
  -32.8105    0.6145    0.0000 H   0  0  0  0  0  0  0  0  0  0  0  0
  -30.9613   -2.1047    0.0000 H   0  0  0  0  0  0  0  0  0  0  0  0
  -30.2241   -5.4149    0.0000 H   0  0  0  0  0  0  0  0  0  0  0  0
  -32.2132   -7.4125    0.0000 H   0  0  0  0  0  0  0  0  0  0  0  0
  -30.6359   -6.3031    0.0000 H   0  0  0  0  0  0  0  0  0  0  0  0
  -35.0294   -5.6668    0.0000 H   0  0  0  0  0  0  0  0  0  0  0  0
  -34.1689   -4.6725    0.0000 H   0  0  0  0  0  0  0  0  0  0  0  0
  -33.9334   -6.7347    0.0000 H   0  0  0  0  0  0  0  0  0  0  0  0
  -34.6203   -3.5761    0.0000 H   0  0  0  0  0  0  0  0  0  0  0  0
  -38.0928   -3.6071    0.0000 H   0  0  0  0  0  0  0  0  0  0  0  0
  -37.4352   -5.2659    0.0000 H   0  0  0  0  0  0  0  0  0  0  0  0
  -35.8846   -1.1368    0.0000 H   0  0  0  0  0  0  0  0  0  0  0  0
  -35.0297   -2.7031    0.0000 H   0  0  0  0  0  0  0  0  0  0  0  0
  -38.8492    0.7124    0.0000 H   0  0  0  0  0  0  0  0  0  0  0  0
  -36.2605    0.4915    0.0000 H   0  0  0  0  0  0  0  0  0  0  0  0
  1  2  1  0
  2  3  1  0
  3  4  2  0
  4  5  1  0
  5  6  2  0
  6  7  1  0
  7  8  2  0
  7  9  1  0
  9 10  1  0
 10 11  1  0
 11 12  2  0
  9 13  1  0
 13 14  1  0
 14 15  2  0
 15 16  1  0
 16 17  2  0
 17 18  1  0
 16 19  1  0
 14 20  1  0
 20 21  1  0
 21 22  2  0
 22 23  1  0
 23 24  2  0
 24 25  1  0
 25 26  2  0
 25 27  1  0
  1 28  2  0
  1 29  1  0
 29 30  1  0
 30 31  1  0
 31 32  1  0
 32 33  2  0
 32 34  1  0
 34 35  1  0
 35 36  1  0
 36 37  1  0
 35 38  1  0
 38 39  2  0
 38 40  1  0
 40 41  1  0
 41 42  1  0
 42 43  1  0
 43 44  1  0
 44 45  2  0
 44 46  1  0
 41 47  1  0
 47 48  2  0
 47 49  1  0
 49 50  1  0
 50 51  1  0
 51 52  1  0
 52 53  1  0
 53 54  2  0
 53 55  1  0
 50 56  1  0
 56 57  2  0
 56 58  1  0
 58 59  1  0
 59 60  1  0
 60 61  1  0
 61 62  1  0
 61 63  1  0
 59 64  1  0
 64 65  2  0
 64 66  1  0
 66 67  1  0
 67 68  1  0
 68 69  1  0
 67 70  1  0
 70 71  2  0
 70 72  1  0
 72 73  1  0
 73 74  1  0
 73 75  1  0
 75 76  2  0
 75 77  1  0
 77 78  1  0
 78 79  1  0
 79 80  1  0
 80 81  1  0
 81 82  2  0
 81 83  1  0
 78 84  1  0
 84 85  2  0
 84 86  1  0
 86 87  1  0
 87 88  1  0
 87 89  1  0
 89 90  2  0
 89 91  1  0
 91 92  1  0
 92 93  1  0
 93 94  1  0
 94 95  2  0
 95 96  1  0
 96 97  1  0
 97 98  2  0
 92 99  1  0
 99100  2  0
 99101  1  0
101102  1  0
102103  1  0
103104  1  0
104105  1  0
104106  2  0
102107  1  0
107108  2  0
107109  1  0
109110  1  0
110111  1  0
111112  1  0
112113  1  0
112114  1  0
110115  1  0
115116  2  0
115117  1  0
117118  1  0
118119  1  0
119120  1  0
118121  1  0
121122  2  0
121123  1  0
124123  1  6
124125  1  0
125126  1  0
126127  1  0
127128  1  0
128129  1  0
129130  1  0
130131  1  0
124132  1  0
124133  1  0
133134  2  0
133135  1  0
135136  1  0
136137  1  0
137138  1  0
138139  1  0
138140  1  0
136141  1  0
141142  2  0
141143  1  0
143144  1  0
144145  1  0
145146  1  0
146147  1  0
146148  1  0
144149  1  0
149150  2  0
149151  1  0
151152  1  0
152153  1  0
153154  1  0
154155  1  0
155156  2  0
155157  1  0
152158  1  0
158159  2  0
158160  1  0
160161  1  0
161162  1  0
162163  1  0
163164  1  0
163165  2  0
161166  1  0
166167  2  0
166168  1  0
168169  1  0
169170  1  0
169171  1  0
171172  2  0
171173  1  0
173174  1  0
174175  1  0
175176  1  0
175177  1  0
177178  1  0
174179  1  0
179180  2  0
179181  1  0
181182  1  0
182183  1  0
183184  1  0
184185  1  0
185186  1  0
182187  1  0
182188  1  1
188189  2  0
188190  1  0
190191  1  0
191192  1  0
192193  1  0
193194  2  0
193195  1  0
191196  1  0
196197  2  0
196198  1  0
198199  1  0
199200  1  0
200201  1  0
200202  1  0
199203  1  0
203204  2  0
203205  1  0
205206  1  0
206207  1  0
207208  1  0
206209  1  0
209210  2  0
209211  1  0
211212  1  0
212213  1  0
213214  1  0
214215  1  0
215216  1  0
216217  1  0
217218  2  3
217219  1  0
212220  1  0
220221  2  0
220222  1  0
222223  1  0
223224  1  0
224225  1  0
225226  1  0
226227  2  0
226228  1  0
223229  1  0
229230  2  0
229231  1  0
231232  1  0
232233  1  0
233234  1  0
234235  1  0
235236  1  0
235237  2  0
232238  1  0
238239  2  0
238240  1  0
  8  3  1  0
 98 94  1  0
 11  6  1  0
 18 13  2  0
131186  2  0
 22  9  1  0
 26 21  1  0
  2241  1  0
  4242  1  0
  5243  1  0
  8244  1  0
 15245  1  0
 17246  1  0
 18247  1  0
 19248  1  0
 23249  1  0
 24250  1  0
 26251  1  0
 27252  1  0
 29253  1  0
 30254  1  0
 30255  1  0
 31256  1  0
 31257  1  0
 34258  1  0
 35259  1  1
 36260  1  0
 36261  1  0
 37262  1  0
 40263  1  0
 41264  1  1
 42265  1  0
 42266  1  0
 43267  1  0
 43268  1  0
 49269  1  0
 50270  1  1
 51271  1  0
 51272  1  0
 52273  1  0
 52274  1  0
 58275  1  0
 59276  1  1
 60277  1  0
 60278  1  0
 61279  1  0
 62280  1  0
 62281  1  0
 62282  1  0
 63283  1  0
 63284  1  0
 63285  1  0
 66286  1  0
 67287  1  1
 68288  1  0
 68289  1  0
 69290  1  0
 69291  1  0
 69292  1  0
 72293  1  0
 73294  1  1
 74295  1  0
 74296  1  0
 74297  1  0
 77298  1  0
 78299  1  1
 79300  1  0
 79301  1  0
 80302  1  0
 80303  1  0
 86304  1  0
 87305  1  1
 88306  1  0
 88307  1  0
 88308  1  0
 91309  1  0
 92310  1  1
 93311  1  0
 93312  1  0
 95313  1  0
 96314  1  0
 97315  1  0
101316  1  0
102317  1  1
103318  1  0
103319  1  0
105320  1  0
105321  1  0
109322  1  0
110323  1  1
111324  1  0
111325  1  0
112326  1  0
113327  1  0
113328  1  0
113329  1  0
114330  1  0
114331  1  0
114332  1  0
117333  1  0
118334  1  1
119335  1  0
119336  1  0
120337  1  0
123338  1  0
125339  1  0
125340  1  0
126341  1  0
126342  1  0
127343  1  0
127344  1  0
128345  1  0
128346  1  0
129347  1  0
129348  1  0
130349  1  0
130350  1  0
131351  1  0
132352  1  0
132353  1  0
132354  1  0
135355  1  0
136356  1  6
137357  1  0
137358  1  0
138359  1  0
139360  1  0
139361  1  0
139362  1  0
140363  1  0
140364  1  0
140365  1  0
143366  1  0
144367  1  6
145368  1  0
145369  1  0
146370  1  0
147371  1  0
147372  1  0
147373  1  0
148374  1  0
148375  1  0
148376  1  0
151377  1  0
152378  1  6
153379  1  0
153380  1  0
154381  1  0
154382  1  0
160383  1  0
161384  1  6
162385  1  0
162386  1  0
164387  1  0
164388  1  0
168389  1  0
169390  1  6
170391  1  0
170392  1  0
170393  1  0
173394  1  0
174395  1  6
175396  1  1
176397  1  0
176398  1  0
176399  1  0
177400  1  0
177401  1  0
178402  1  0
178403  1  0
178404  1  0
181405  1  0
183406  1  0
183407  1  0
184408  1  0
184409  1  0
185410  1  0
185411  1  0
186412  1  0
187413  1  0
187414  1  0
187415  1  0
190416  1  0
191417  1  1
192418  1  0
192419  1  0
198420  1  0
199421  1  6
200422  1  6
201423  1  0
202424  1  0
202425  1  0
202426  1  0
205427  1  0
206428  1  1
207429  1  0
207430  1  0
208431  1  0
208432  1  0
208433  1  0
211434  1  0
212435  1  6
213436  1  0
213437  1  0
214438  1  0
214439  1  0
215440  1  0
215441  1  0
216442  1  0
218443  1  0
218444  1  0
219445  1  0
219446  1  0
222447  1  0
223448  1  1
224449  1  0
224450  1  0
225451  1  0
225452  1  0
231453  1  0
232454  1  6
233455  1  0
233456  1  0
234457  1  0
234458  1  0
236459  1  0
236460  1  0
M  CHG  8  46  -1  55  -1  83  -1 157  -1 195  -1 218   1 228  -1 240  -1
M  END
