
     RDKit          2D

344351  0  0  0  0  0  0  0  0999 V2000
   36.9788   -1.4959    0.0000 C   0  0  0  0  0  0  0  0  0  0  0  0
   38.2706   -0.7336    0.0000 N   0  0  0  0  0  0  0  0  0  0  0  0
   39.5767   -1.4713    0.0000 C   0  0  0  0  0  0  0  0  0  0  0  0
   39.5910   -2.9712    0.0000 C   0  0  0  0  0  0  0  0  0  0  0  0
   40.8970   -3.7088    0.0000 C   0  0  0  0  0  0  0  0  0  0  0  0
   42.1889   -2.9466    0.0000 C   0  0  0  0  0  0  0  0  0  0  0  0
   42.1747   -1.4466    0.0000 C   0  0  0  0  0  0  0  0  0  0  0  0
   40.8686   -0.7090    0.0000 C   0  0  0  0  0  0  0  0  0  0  0  0
   43.5968   -0.9696    0.0000 C   0  0  0  0  0  0  0  0  0  0  0  0
   44.4900   -2.1747    0.0000 O   0  0  0  0  0  0  0  0  0  0  0  0
   43.6198   -3.3965    0.0000 C   0  0  0  0  0  0  0  0  0  0  0  0
   44.0969   -4.8187    0.0000 O   0  0  0  0  0  0  0  0  0  0  0  0
   45.0610   -0.6438    0.0000 C   0  0  0  0  0  0  0  0  0  0  0  0
   45.5110    0.7871    0.0000 C   0  0  0  0  0  0  0  0  0  0  0  0
   46.9752    1.1129    0.0000 C   0  0  0  0  0  0  0  0  0  0  0  0
   47.9894    0.0077    0.0000 C   0  0  0  0  0  0  0  0  0  0  0  0
   47.5394   -1.4232    0.0000 C   0  0  0  0  0  0  0  0  0  0  0  0
   46.0752   -1.7490    0.0000 C   0  0  0  0  0  0  0  0  0  0  0  0
   49.4536    0.3335    0.0000 O   0  0  0  0  0  0  0  0  0  0  0  0
   44.4968    1.8922    0.0000 O   0  0  0  0  0  0  0  0  0  0  0  0
   43.0326    1.5665    0.0000 C   0  0  0  0  0  0  0  0  0  0  0  0
   42.5826    0.1356    0.0000 C   0  0  0  0  0  0  0  0  0  0  0  0
   41.3284    0.4776    0.0000 C   0  0  0  0  0  0  0  0  0  0  0  0
   40.7875    1.0670    0.0000 C   0  0  0  0  0  0  0  0  0  0  0  0
   41.0275    1.8301    0.0000 C   0  0  0  0  0  0  0  0  0  0  0  0
   41.8084    2.0039    0.0000 C   0  0  0  0  0  0  0  0  0  0  0  0
   39.5399    3.4510    0.0000 O   0  0  0  0  0  0  0  0  0  0  0  0
   36.9930   -2.9958    0.0000 S   0  0  0  0  0  0  0  0  0  0  0  0
   35.6727   -0.7582    0.0000 N   0  0  0  0  0  0  0  0  0  0  0  0
   34.3808   -1.5205    0.0000 C   0  0  0  0  0  0  0  0  0  0  0  0
   33.0747   -0.7829    0.0000 C   0  0  0  0  0  0  0  0  0  0  0  0
   31.7829   -1.5452    0.0000 O   0  0  0  0  0  0  0  0  0  0  0  0
   30.4768   -0.8075    0.0000 C   0  0  0  0  0  0  0  0  0  0  0  0
   29.1849   -1.5698    0.0000 C   0  0  0  0  0  0  0  0  0  0  0  0
   27.8788   -0.8321    0.0000 O   0  0  0  0  0  0  0  0  0  0  0  0
   26.5869   -1.5944    0.0000 C   0  0  0  0  0  0  0  0  0  0  0  0
   25.2808   -0.8568    0.0000 C   0  0  0  0  0  0  0  0  0  0  0  0
   23.9890   -1.6191    0.0000 O   0  0  0  0  0  0  0  0  0  0  0  0
   22.6829   -0.8814    0.0000 C   0  0  0  0  0  0  0  0  0  0  0  0
   21.3910   -1.6437    0.0000 C   0  0  0  0  0  0  0  0  0  0  0  0
   20.0849   -0.9060    0.0000 O   0  0  0  0  0  0  0  0  0  0  0  0
   18.7931   -1.6683    0.0000 C   0  0  0  0  0  0  0  0  0  0  0  0
   17.4870   -0.9307    0.0000 C   0  0  0  0  0  0  0  0  0  0  0  0
   16.1951   -1.6930    0.0000 O   0  0  0  0  0  0  0  0  0  0  0  0
   14.8890   -0.9553    0.0000 C   0  0  0  0  0  0  0  0  0  0  0  0
   13.5971   -1.7176    0.0000 C   0  0  0  0  0  0  0  0  0  0  0  0
   12.2910   -0.9799    0.0000 O   0  0  0  0  0  0  0  0  0  0  0  0
   10.9992   -1.7422    0.0000 C   0  0  0  0  0  0  0  0  0  0  0  0
    9.6931   -1.0046    0.0000 C   0  0  0  0  0  0  0  0  0  0  0  0
    8.4012   -1.7669    0.0000 C   0  0  0  0  0  0  0  0  0  0  0  0
    8.6014   -2.5385    0.0000 O   0  0  0  0  0  0  0  0  0  0  0  0
    7.0951   -1.0292    0.0000 N   0  0  0  0  0  0  0  0  0  0  0  0
    5.8033   -1.7915    0.0000 C   0  0  0  0  0  0  0  0  0  0  0  0
    6.7783   -2.9314    0.0000 C   0  0  0  0  0  0  0  0  0  0  0  0
    8.2530   -2.6569    0.0000 C   0  0  0  0  0  0  0  0  0  0  0  0
    9.2280   -3.7968    0.0000 N   0  0  0  0  0  0  0  0  0  0  0  0
    9.0800   -1.4055    0.0000 O   0  0  0  0  0  0  0  0  0  0  0  0
    4.3286   -2.0660    0.0000 C   0  0  0  0  0  0  0  0  0  0  0  0
    4.1860   -3.5592    0.0000 O   0  0  0  0  0  0  0  0  0  0  0  0
    3.3535   -0.9261    0.0000 N   0  0  0  0  0  0  0  0  0  0  0  0
    1.8789   -1.2006    0.0000 C   0  0  0  0  0  0  0  0  0  0  0  0
    2.4052   -2.6052    0.0000 C   0  0  0  0  0  0  0  0  0  0  0  0
    3.8849   -2.8516    0.0000 C   0  0  0  0  0  0  0  0  0  0  0  0
    4.4112   -4.2562    0.0000 C   0  0  0  0  0  0  0  0  0  0  0  0
    5.8498   -4.6812    0.0000 N   0  0  0  0  0  0  0  0  0  0  0  0
    3.6063   -5.5220    0.0000 O   0  0  0  0  0  0  0  0  0  0  0  0
    0.3993   -0.9541    0.0000 C   0  0  0  0  0  0  0  0  0  0  0  0
   -0.2454   -2.3085    0.0000 O   0  0  0  0  0  0  0  0  0  0  0  0
   -0.1271    0.4505    0.0000 N   0  0  0  0  0  0  0  0  0  0  0  0
   -1.6067    0.6970    0.0000 C   0  0  0  0  0  0  0  0  0  0  0  0
   -1.5925   -0.8030    0.0000 C   0  0  0  0  0  0  0  0  0  0  0  0
   -0.2864   -1.5406    0.0000 C   0  0  0  0  0  0  0  0  0  0  0  0
   -0.2722   -3.0406    0.0000 C   0  0  0  0  0  0  0  0  0  0  0  0
    1.0339   -3.7782    0.0000 N   0  0  0  0  0  0  0  0  0  0  0  0
    1.0481   -5.2781    0.0000 C   0  0  0  0  0  0  0  0  0  0  0  0
    2.3542   -6.0158    0.0000 N   0  0  0  0  0  0  0  0  0  0  0  0
   -0.2437   -6.0404    0.0000 N   0  0  0  0  0  0  0  0  0  0  0  0
   -2.9128    1.4346    0.0000 C   0  0  0  0  0  0  0  0  0  0  0  0
   -3.9818    0.3824    0.0000 O   0  0  0  0  0  0  0  0  0  0  0  0
   -2.9270    2.9345    0.0000 N   0  0  0  0  0  0  0  0  0  0  0  0
   -4.2331    3.6722    0.0000 C   0  0  0  0  0  0  0  0  0  0  0  0
   -4.3141    2.1744    0.0000 C   0  0  0  0  0  0  0  0  0  0  0  0
   -4.6770    0.7189    0.0000 C   0  0  0  0  0  0  0  0  0  0  0  0
   -5.3088   -0.6415    0.0000 C   0  0  0  0  0  0  0  0  0  0  0  0
   -6.1867   -1.8578    0.0000 C   0  0  0  0  0  0  0  0  0  0  0  0
   -7.2789   -2.8859    0.0000 C   0  0  0  0  0  0  0  0  0  0  0  0
   -8.5459   -3.6888    0.0000 C   0  0  0  0  0  0  0  0  0  0  0  0
   -9.9420   -4.2374    0.0000 C   0  0  0  0  0  0  0  0  0  0  0  0
   -2.9922    4.5149    0.0000 C   0  0  0  0  0  0  0  0  0  0  0  0
   -4.4371    5.1583    0.0000 C   0  0  0  0  0  0  0  0  0  0  0  0
   -3.0300    5.6780    0.0000 O   0  0  0  0  0  0  0  0  0  0  0  0
   -4.9187    6.5789    0.0000 N   0  0  0  0  0  0  0  0  0  0  0  0
   -5.6604    7.8827    0.0000 C   0  0  0  0  0  0  0  0  0  0  0  0
   -5.0720    9.2625    0.0000 C   0  0  0  0  0  0  0  0  0  0  0  0
   -3.5829    9.4428    0.0000 C   0  0  0  0  0  0  0  0  0  0  0  0
   -2.9946   10.8227    0.0000 C   0  0  0  0  0  0  0  0  0  0  0  0
   -2.1219    9.1030    0.0000 C   0  0  0  0  0  0  0  0  0  0  0  0
   -6.6354    9.0225    0.0000 C   0  0  0  0  0  0  0  0  0  0  0  0
   -5.7327   10.2205    0.0000 O   0  0  0  0  0  0  0  0  0  0  0  0
   -7.8085    9.9573    0.0000 N   0  0  0  0  0  0  0  0  0  0  0  0
   -9.1374   10.6531    0.0000 C   0  0  0  0  0  0  0  0  0  0  0  0
   -9.3884   12.1320    0.0000 C   0  0  0  0  0  0  0  0  0  0  0  0
   -8.2332   13.0888    0.0000 O   0  0  0  0  0  0  0  0  0  0  0  0
  -10.5739   11.0849    0.0000 C   0  0  0  0  0  0  0  0  0  0  0  0
  -10.4621   12.5807    0.0000 O   0  0  0  0  0  0  0  0  0  0  0  0
  -12.0661   11.2370    0.0000 N   0  0  0  0  0  0  0  0  0  0  0  0
  -13.5602   11.1040    0.0000 C   0  0  0  0  0  0  0  0  0  0  0  0
  -14.5709   12.2123    0.0000 C   0  0  0  0  0  0  0  0  0  0  0  0
  -14.1164   13.6418    0.0000 C   0  0  0  0  0  0  0  0  0  0  0  0
  -12.6512   13.9629    0.0000 C   0  0  0  0  0  0  0  0  0  0  0  0
  -12.1967   15.3924    0.0000 C   0  0  0  0  0  0  0  0  0  0  0  0
  -13.2074   16.5008    0.0000 C   0  0  0  0  0  0  0  0  0  0  0  0
  -14.6726   16.1797    0.0000 C   0  0  0  0  0  0  0  0  0  0  0  0
  -15.1271   14.7502    0.0000 C   0  0  0  0  0  0  0  0  0  0  0  0
  -15.0021   10.6906    0.0000 C   0  0  0  0  0  0  0  0  0  0  0  0
  -15.7168   12.0094    0.0000 O   0  0  0  0  0  0  0  0  0  0  0  0
  -16.3397   10.0118    0.0000 N   0  0  0  0  0  0  0  0  0  0  0  0
  -17.5247    9.0921    0.0000 C   0  0  0  0  0  0  0  0  0  0  0  0
  -18.9742    9.4780    0.0000 C   0  0  0  0  0  0  0  0  0  0  0  0
  -19.3647   10.9263    0.0000 C   0  0  0  0  0  0  0  0  0  0  0  0
  -18.3057   11.9886    0.0000 C   0  0  0  0  0  0  0  0  0  0  0  0
  -18.6961   13.4369    0.0000 C   0  0  0  0  0  0  0  0  0  0  0  0
  -20.1456   13.8229    0.0000 C   0  0  0  0  0  0  0  0  0  0  0  0
  -21.2046   12.7606    0.0000 C   0  0  0  0  0  0  0  0  0  0  0  0
  -20.8142   11.3123    0.0000 C   0  0  0  0  0  0  0  0  0  0  0  0
  -18.5142    7.9647    0.0000 C   0  0  0  0  0  0  0  0  0  0  0  0
  -19.8285    8.6878    0.0000 O   0  0  0  0  0  0  0  0  0  0  0  0
  -19.2725    6.6705    0.0000 N   0  0  0  0  0  0  0  0  0  0  0  0
  -19.7722    5.2562    0.0000 C   0  0  0  0  0  0  0  0  0  0  0  0
  -21.2002    4.7972    0.0000 C   0  0  0  0  0  0  0  0  0  0  0  0
  -19.9951    3.7728    0.0000 C   0  0  0  0  0  0  0  0  0  0  0  0
  -21.4916    3.6706    0.0000 O   0  0  0  0  0  0  0  0  0  0  0  0
  -19.9333    2.2741    0.0000 N   0  0  0  0  0  0  0  0  0  0  0  0
  -19.5890    0.8142    0.0000 C   0  0  0  0  0  0  0  0  0  0  0  0
  -20.5422   -0.3440    0.0000 C   0  0  0  0  0  0  0  0  0  0  0  0
  -22.0218   -0.0975    0.0000 C   0  0  0  0  0  0  0  0  0  0  0  0
  -22.9751   -1.2557    0.0000 C   0  0  0  0  0  0  0  0  0  0  0  0
  -23.3279    0.6401    0.0000 C   0  0  0  0  0  0  0  0  0  0  0  0
  -18.9746   -0.5542    0.0000 C   0  0  0  0  0  0  0  0  0  0  0  0
  -20.1782   -1.4493    0.0000 O   0  0  0  0  0  0  0  0  0  0  0  0
  -18.1123   -1.7816    0.0000 N   0  0  0  0  0  0  0  0  0  0  0  0
  -17.0333   -2.8237    0.0000 C   0  0  0  0  0  0  0  0  0  0  0  0
  -15.7767   -3.6427    0.0000 C   0  0  0  0  0  0  0  0  0  0  0  0
  -14.3877   -4.2090    0.0000 C   0  0  0  0  0  0  0  0  0  0  0  0
  -12.9166   -4.5023    0.0000 C   0  0  0  0  0  0  0  0  0  0  0  0
  -11.4167   -4.5119    0.0000 C   0  0  0  0  0  0  0  0  0  0  0  0
  -18.4461   -3.3277    0.0000 C   0  0  0  0  0  0  0  0  0  0  0  0
  -17.2091   -4.3133    0.0000 C   0  0  0  0  0  0  0  0  0  0  0  0
  -16.2597   -5.4746    0.0000 O   0  0  0  0  0  0  0  0  0  0  0  0
  -18.5871   -4.9059    0.0000 N   0  0  0  0  0  0  0  0  0  0  0  0
  -18.7629   -6.3956    0.0000 C   0  0  0  0  0  0  0  0  0  0  0  0
  -18.4185   -7.8556    0.0000 C   0  0  0  0  0  0  0  0  0  0  0  0
  -19.5107   -8.8837    0.0000 C   0  0  0  0  0  0  0  0  0  0  0  0
  -19.1664  -10.3437    0.0000 O   0  0  0  0  0  0  0  0  0  0  0  0
  -21.0090   -8.8124    0.0000 O   0  0  0  0  0  0  0  0  0  0  0  0
  -20.1408   -6.9882    0.0000 C   0  0  0  0  0  0  0  0  0  0  0  0
  -21.3430   -6.0912    0.0000 O   0  0  0  0  0  0  0  0  0  0  0  0
  -20.3166   -8.4779    0.0000 N   0  0  0  0  0  0  0  0  0  0  0  0
  -21.6946   -9.0705    0.0000 C   0  0  0  0  0  0  0  0  0  0  0  0
  -23.1921   -9.1561    0.0000 C   0  0  0  0  0  0  0  0  0  0  0  0
  -23.8668  -10.4958    0.0000 C   0  0  0  0  0  0  0  0  0  0  0  0
  -25.3644  -10.5814    0.0000 C   0  0  0  0  0  0  0  0  0  0  0  0
  -26.1973  -11.8288    0.0000 N   0  0  0  0  0  0  0  0  0  0  0  0
  -26.1873   -9.3272    0.0000 O   0  0  0  0  0  0  0  0  0  0  0  0
  -21.8704  -10.5602    0.0000 C   0  0  0  0  0  0  0  0  0  0  0  0
  -20.6681  -11.4572    0.0000 O   0  0  0  0  0  0  0  0  0  0  0  0
  -23.2483  -11.1528    0.0000 N   0  0  0  0  0  0  0  0  0  0  0  0
  -23.4241  -12.6424    0.0000 C   0  0  0  0  0  0  0  0  0  0  0  0
  -23.0798  -14.1024    0.0000 C   0  0  0  0  0  0  0  0  0  0  0  0
  -24.1720  -15.1305    0.0000 C   0  0  0  0  0  0  0  0  0  0  0  0
  -22.2569  -15.3565    0.0000 C   0  0  0  0  0  0  0  0  0  0  0  0
  -20.7593  -15.2709    0.0000 C   0  0  0  0  0  0  0  0  0  0  0  0
  -24.8021  -13.2350    0.0000 C   0  0  0  0  0  0  0  0  0  0  0  0
  -25.1581  -14.6922    0.0000 O   0  0  0  0  0  0  0  0  0  0  0  0
  -26.1047  -12.4912    0.0000 O   0  0  0  0  0  0  0  0  0  0  0  0
   38.0737    0.7534    0.0000 H   0  0  0  0  0  0  0  0  0  0  0  0
   38.2991   -3.7335    0.0000 H   0  0  0  0  0  0  0  0  0  0  0  0
   40.9113   -5.2088    0.0000 H   0  0  0  0  0  0  0  0  0  0  0  0
   40.4919    0.7429    0.0000 H   0  0  0  0  0  0  0  0  0  0  0  0
   47.4252    2.5438    0.0000 H   0  0  0  0  0  0  0  0  0  0  0  0
   48.5537   -2.5284    0.0000 H   0  0  0  0  0  0  0  0  0  0  0  0
   45.6253   -3.1799    0.0000 H   0  0  0  0  0  0  0  0  0  0  0  0
   50.4678   -0.7717    0.0000 H   0  0  0  0  0  0  0  0  0  0  0  0
   40.6684   -1.6211    0.0000 H   0  0  0  0  0  0  0  0  0  0  0  0
   38.6112    0.7701    0.0000 H   0  0  0  0  0  0  0  0  0  0  0  0
   42.4683    4.1025    0.0000 H   0  0  0  0  0  0  0  0  0  0  0  0
   39.9899    4.8819    0.0000 H   0  0  0  0  0  0  0  0  0  0  0  0
   35.6585    0.7417    0.0000 H   0  0  0  0  0  0  0  0  0  0  0  0
   35.3558   -2.6604    0.0000 H   0  0  0  0  0  0  0  0  0  0  0  0
   33.4276   -2.6787    0.0000 H   0  0  0  0  0  0  0  0  0  0  0  0
   34.0280    0.3753    0.0000 H   0  0  0  0  0  0  0  0  0  0  0  0
   32.2459    0.4673    0.0000 H   0  0  0  0  0  0  0  0  0  0  0  0
   31.2817    0.4582    0.0000 H   0  0  0  0  0  0  0  0  0  0  0  0
   29.5017    0.3324    0.0000 H   0  0  0  0  0  0  0  0  0  0  0  0
   30.1599   -2.7097    0.0000 H   0  0  0  0  0  0  0  0  0  0  0  0
   28.3799   -2.8355    0.0000 H   0  0  0  0  0  0  0  0  0  0  0  0
   27.4157   -2.8447    0.0000 H   0  0  0  0  0  0  0  0  0  0  0  0
   25.6337   -2.7526    0.0000 H   0  0  0  0  0  0  0  0  0  0  0  0
   26.2341    0.3014    0.0000 H   0  0  0  0  0  0  0  0  0  0  0  0
   24.4520    0.3934    0.0000 H   0  0  0  0  0  0  0  0  0  0  0  0
   23.4878    0.3843    0.0000 H   0  0  0  0  0  0  0  0  0  0  0  0
   21.7078    0.2585    0.0000 H   0  0  0  0  0  0  0  0  0  0  0  0
   22.3660   -2.7836    0.0000 H   0  0  0  0  0  0  0  0  0  0  0  0
   20.5861   -2.9094    0.0000 H   0  0  0  0  0  0  0  0  0  0  0  0
   19.6219   -2.9186    0.0000 H   0  0  0  0  0  0  0  0  0  0  0  0
   17.8398   -2.8265    0.0000 H   0  0  0  0  0  0  0  0  0  0  0  0
   18.4402    0.2275    0.0000 H   0  0  0  0  0  0  0  0  0  0  0  0
   16.6581    0.3195    0.0000 H   0  0  0  0  0  0  0  0  0  0  0  0
   15.6940    0.3104    0.0000 H   0  0  0  0  0  0  0  0  0  0  0  0
   13.9140    0.1846    0.0000 H   0  0  0  0  0  0  0  0  0  0  0  0
   14.5722   -2.8575    0.0000 H   0  0  0  0  0  0  0  0  0  0  0  0
   12.7922   -2.9833    0.0000 H   0  0  0  0  0  0  0  0  0  0  0  0
   11.8280   -2.9925    0.0000 H   0  0  0  0  0  0  0  0  0  0  0  0
   10.1942   -3.0080    0.0000 H   0  0  0  0  0  0  0  0  0  0  0  0
   10.6463    0.1536    0.0000 H   0  0  0  0  0  0  0  0  0  0  0  0
    8.7181    0.1353    0.0000 H   0  0  0  0  0  0  0  0  0  0  0  0
    7.0809    0.4707    0.0000 H   0  0  0  0  0  0  0  0  0  0  0  0
    5.2769   -0.3869    0.0000 H   0  0  0  0  0  0  0  0  0  0  0  0
    7.3047   -4.3360    0.0000 H   0  0  0  0  0  0  0  0  0  0  0  0
    5.5890   -3.8454    0.0000 H   0  0  0  0  0  0  0  0  0  0  0  0
   10.7251   -3.7041    0.0000 H   0  0  0  0  0  0  0  0  0  0  0  0
    8.7284   -5.2111    0.0000 H   0  0  0  0  0  0  0  0  0  0  0  0
    3.8532    0.4882    0.0000 H   0  0  0  0  0  0  0  0  0  0  0  0
    1.8647    0.2994    0.0000 H   0  0  0  0  0  0  0  0  0  0  0  0
    2.4195   -4.1051    0.0000 H   0  0  0  0  0  0  0  0  0  0  0  0
    1.0408   -3.2283    0.0000 H   0  0  0  0  0  0  0  0  0  0  0  0
    5.3595   -2.5772    0.0000 H   0  0  0  0  0  0  0  0  0  0  0  0
    4.2340   -1.3928    0.0000 H   0  0  0  0  0  0  0  0  0  0  0  0
    6.4172   -5.9073    0.0000 H   0  0  0  0  0  0  0  0  0  0  0  0
    7.1380   -3.6249    0.0000 H   0  0  0  0  0  0  0  0  0  0  0  0
    0.8261    1.6087    0.0000 H   0  0  0  0  0  0  0  0  0  0  0  0
   -1.1071    2.1113    0.0000 H   0  0  0  0  0  0  0  0  0  0  0  0
   -2.2608   -2.1459    0.0000 H   0  0  0  0  0  0  0  0  0  0  0  0
   -3.0721   -0.5565    0.0000 H   0  0  0  0  0  0  0  0  0  0  0  0
    1.1932   -1.7871    0.0000 H   0  0  0  0  0  0  0  0  0  0  0  0
    0.5406   -0.2892    0.0000 H   0  0  0  0  0  0  0  0  0  0  0  0
   -0.7718   -4.4549    0.0000 H   0  0  0  0  0  0  0  0  0  0  0  0
   -1.7708   -2.9763    0.0000 H   0  0  0  0  0  0  0  0  0  0  0  0
    2.4718   -3.3512    0.0000 H   0  0  0  0  0  0  0  0  0  0  0  0
    2.3684   -7.5157    0.0000 H   0  0  0  0  0  0  0  0  0  0  0  0
    3.7294   -5.4167    0.0000 H   0  0  0  0  0  0  0  0  0  0  0  0
   -0.2295   -7.5404    0.0000 H   0  0  0  0  0  0  0  0  0  0  0  0
   -1.5498   -5.3028    0.0000 H   0  0  0  0  0  0  0  0  0  0  0  0
   -1.5519    3.5337    0.0000 H   0  0  0  0  0  0  0  0  0  0  0  0
   -2.8337    2.4159    0.0000 H   0  0  0  0  0  0  0  0  0  0  0  0
   -3.2981    1.0708    0.0000 H   0  0  0  0  0  0  0  0  0  0  0  0
   -3.1940    0.4935    0.0000 H   0  0  0  0  0  0  0  0  0  0  0  0
   -3.7386   -0.4513    0.0000 H   0  0  0  0  0  0  0  0  0  0  0  0
   -3.8093   -0.6035    0.0000 H   0  0  0  0  0  0  0  0  0  0  0  0
   -4.4524   -1.8730    0.0000 H   0  0  0  0  0  0  0  0  0  0  0  0
   -4.7482   -2.2828    0.0000 H   0  0  0  0  0  0  0  0  0  0  0  0
   -5.5788   -3.2291    0.0000 H   0  0  0  0  0  0  0  0  0  0  0  0
   -5.9468   -3.5755    0.0000 H   0  0  0  0  0  0  0  0  0  0  0  0
   -6.9415   -4.3475    0.0000 H   0  0  0  0  0  0  0  0  0  0  0  0
   -7.3684   -4.6180    0.0000 H   0  0  0  0  0  0  0  0  0  0  0  0
   -8.6743   -5.1833    0.0000 H   0  0  0  0  0  0  0  0  0  0  0  0
   -9.5286   -5.6793    0.0000 H   0  0  0  0  0  0  0  0  0  0  0  0
   -1.5724    4.0310    0.0000 H   0  0  0  0  0  0  0  0  0  0  0  0
   -1.9726    5.6151    0.0000 H   0  0  0  0  0  0  0  0  0  0  0  0
   -3.7462    5.8116    0.0000 H   0  0  0  0  0  0  0  0  0  0  0  0
   -3.4856    7.0219    0.0000 H   0  0  0  0  0  0  0  0  0  0  0  0
   -4.1635    7.7851    0.0000 H   0  0  0  0  0  0  0  0  0  0  0  0
   -4.9911   10.7603    0.0000 H   0  0  0  0  0  0  0  0  0  0  0  0
   -6.4074    9.9457    0.0000 H   0  0  0  0  0  0  0  0  0  0  0  0
   -3.2990    7.9700    0.0000 H   0  0  0  0  0  0  0  0  0  0  0  0
   -1.5385   11.1832    0.0000 H   0  0  0  0  0  0  0  0  0  0  0  0
   -2.9136   12.3205    0.0000 H   0  0  0  0  0  0  0  0  0  0  0  0
   -4.4032   11.3380    0.0000 H   0  0  0  0  0  0  0  0  0  0  0  0
   -0.9712   10.0653    0.0000 H   0  0  0  0  0  0  0  0  0  0  0  0
   -0.8652    8.2840    0.0000 H   0  0  0  0  0  0  0  0  0  0  0  0
   -2.7102    7.7232    0.0000 H   0  0  0  0  0  0  0  0  0  0  0  0
   -6.9895   11.2140    0.0000 H   0  0  0  0  0  0  0  0  0  0  0  0
   -7.9238   11.5347    0.0000 H   0  0  0  0  0  0  0  0  0  0  0  0
   -9.9656   13.5164    0.0000 H   0  0  0  0  0  0  0  0  0  0  0  0
  -10.8812   11.9848    0.0000 H   0  0  0  0  0  0  0  0  0  0  0  0
   -8.4842   14.5676    0.0000 H   0  0  0  0  0  0  0  0  0  0  0  0
  -11.8738   12.7246    0.0000 H   0  0  0  0  0  0  0  0  0  0  0  0
  -13.0160   12.5017    0.0000 H   0  0  0  0  0  0  0  0  0  0  0  0
  -15.8050   13.0650    0.0000 H   0  0  0  0  0  0  0  0  0  0  0  0
  -15.7472   11.2815    0.0000 H   0  0  0  0  0  0  0  0  0  0  0  0
  -11.5129   12.9860    0.0000 H   0  0  0  0  0  0  0  0  0  0  0  0
  -10.7315   15.7135    0.0000 H   0  0  0  0  0  0  0  0  0  0  0  0
  -12.7529   17.9303    0.0000 H   0  0  0  0  0  0  0  0  0  0  0  0
  -15.6833   17.2880    0.0000 H   0  0  0  0  0  0  0  0  0  0  0  0
  -16.5924   14.4291    0.0000 H   0  0  0  0  0  0  0  0  0  0  0  0
  -16.9822   11.3672    0.0000 H   0  0  0  0  0  0  0  0  0  0  0  0
  -17.8226   10.5622    0.0000 H   0  0  0  0  0  0  0  0  0  0  0  0
  -20.4734    9.5281    0.0000 H   0  0  0  0  0  0  0  0  0  0  0  0
  -19.4604    8.0590    0.0000 H   0  0  0  0  0  0  0  0  0  0  0  0
  -16.8199   11.7822    0.0000 H   0  0  0  0  0  0  0  0  0  0  0  0
  -17.6371   14.4992    0.0000 H   0  0  0  0  0  0  0  0  0  0  0  0
  -20.5361   15.2712    0.0000 H   0  0  0  0  0  0  0  0  0  0  0  0
  -22.6541   13.1466    0.0000 H   0  0  0  0  0  0  0  0  0  0  0  0
  -21.8732   10.2500    0.0000 H   0  0  0  0  0  0  0  0  0  0  0  0
  -20.6330    7.3023    0.0000 H   0  0  0  0  0  0  0  0  0  0  0  0
  -20.8175    6.3319    0.0000 H   0  0  0  0  0  0  0  0  0  0  0  0
  -22.3117    5.8045    0.0000 H   0  0  0  0  0  0  0  0  0  0  0  0
  -22.4885    4.0288    0.0000 H   0  0  0  0  0  0  0  0  0  0  0  0
  -20.8421    3.3406    0.0000 H   0  0  0  0  0  0  0  0  0  0  0  0
  -21.4331    2.2528    0.0000 H   0  0  0  0  0  0  0  0  0  0  0  0
  -20.9977    1.3295    0.0000 H   0  0  0  0  0  0  0  0  0  0  0  0
  -21.0419   -1.7583    0.0000 H   0  0  0  0  0  0  0  0  0  0  0  0
  -19.4534   -1.3758    0.0000 H   0  0  0  0  0  0  0  0  0  0  0  0
  -21.8793    1.3957    0.0000 H   0  0  0  0  0  0  0  0  0  0  0  0
  -24.4737   -1.1914    0.0000 H   0  0  0  0  0  0  0  0  0  0  0  0
  -23.4747   -2.6700    0.0000 H   0  0  0  0  0  0  0  0  0  0  0  0
  -21.7686   -2.1471    0.0000 H   0  0  0  0  0  0  0  0  0  0  0  0
  -24.7031    0.0410    0.0000 H   0  0  0  0  0  0  0  0  0  0  0  0
  -24.3030    1.7800    0.0000 H   0  0  0  0  0  0  0  0  0  0  0  0
  -22.3747    1.7983    0.0000 H   0  0  0  0  0  0  0  0  0  0  0  0
  -19.3625   -2.6105    0.0000 H   0  0  0  0  0  0  0  0  0  0  0  0
  -15.6673   -5.1387    0.0000 H   0  0  0  0  0  0  0  0  0  0  0  0
  -16.8457   -4.6949    0.0000 H   0  0  0  0  0  0  0  0  0  0  0  0
  -14.1767   -5.6941    0.0000 H   0  0  0  0  0  0  0  0  0  0  0  0
  -15.2383   -5.4446    0.0000 H   0  0  0  0  0  0  0  0  0  0  0  0
  -12.2591   -5.8505    0.0000 H   0  0  0  0  0  0  0  0  0  0  0  0
  -13.6810   -5.7929    0.0000 H   0  0  0  0  0  0  0  0  0  0  0  0
  -11.2836   -6.0060    0.0000 H   0  0  0  0  0  0  0  0  0  0  0  0
  -19.0650   -4.6940    0.0000 H   0  0  0  0  0  0  0  0  0  0  0  0
  -19.9461   -3.3181    0.0000 H   0  0  0  0  0  0  0  0  0  0  0  0
  -19.0475   -1.9535    0.0000 H   0  0  0  0  0  0  0  0  0  0  0  0
  -19.8897   -4.1621    0.0000 H   0  0  0  0  0  0  0  0  0  0  0  0
  -17.2653   -6.3100    0.0000 H   0  0  0  0  0  0  0  0  0  0  0  0
  -17.5956   -9.1097    0.0000 H   0  0  0  0  0  0  0  0  0  0  0  0
  -17.0406   -7.2629    0.0000 H   0  0  0  0  0  0  0  0  0  0  0  0
  -19.3672   -9.6392    0.0000 H   0  0  0  0  0  0  0  0  0  0  0  0
  -22.0389   -7.6105    0.0000 H   0  0  0  0  0  0  0  0  0  0  0  0
  -24.6286   -8.7243    0.0000 H   0  0  0  0  0  0  0  0  0  0  0  0
  -23.0164   -7.6664    0.0000 H   0  0  0  0  0  0  0  0  0  0  0  0
  -24.0426  -11.9854    0.0000 H   0  0  0  0  0  0  0  0  0  0  0  0
  -22.8013  -11.5515    0.0000 H   0  0  0  0  0  0  0  0  0  0  0  0
  -27.5366  -12.0066    0.0000 H   0  0  0  0  0  0  0  0  0  0  0  0
  -25.7639  -13.4374    0.0000 H   0  0  0  0  0  0  0  0  0  0  0  0
  -24.6319  -10.5733    0.0000 H   0  0  0  0  0  0  0  0  0  0  0  0
  -21.9265  -12.5569    0.0000 H   0  0  0  0  0  0  0  0  0  0  0  0
  -21.7843  -13.3462    0.0000 H   0  0  0  0  0  0  0  0  0  0  0  0
  -24.0082  -16.6216    0.0000 H   0  0  0  0  0  0  0  0  0  0  0  0
  -25.5499  -15.7232    0.0000 H   0  0  0  0  0  0  0  0  0  0  0  0
  -25.4874  -14.4097    0.0000 H   0  0  0  0  0  0  0  0  0  0  0  0
  -21.9126  -16.8165    0.0000 H   0  0  0  0  0  0  0  0  0  0  0  0
  -23.5523  -16.1127    0.0000 H   0  0  0  0  0  0  0  0  0  0  0  0
  -19.9364  -16.5251    0.0000 H   0  0  0  0  0  0  0  0  0  0  0  0
  -19.3814  -14.6783    0.0000 H   0  0  0  0  0  0  0  0  0  0  0  0
  -20.9231  -13.7799    0.0000 H   0  0  0  0  0  0  0  0  0  0  0  0
  1  2  1  0
  2  3  1  0
  3  4  2  0
  4  5  1  0
  5  6  2  0
  6  7  1  0
  7  8  2  0
  7  9  1  0
  9 10  1  0
 10 11  1  0
 11 12  2  0
  9 13  1  0
 13 14  1  0
 14 15  2  0
 15 16  1  0
 16 17  2  0
 17 18  1  0
 16 19  1  0
 14 20  1  0
 20 21  1  0
 21 22  2  0
 22 23  1  0
 23 24  2  0
 24 25  1  0
 25 26  2  0
 25 27  1  0
  1 28  2  0
  1 29  1  0
 29 30  1  0
 30 31  1  0
 31 32  1  0
 32 33  1  0
 33 34  1  0
 34 35  1  0
 35 36  1  0
 36 37  1  0
 37 38  1  0
 38 39  1  0
 39 40  1  0
 40 41  1  0
 41 42  1  0
 42 43  1  0
 43 44  1  0
 44 45  1  0
 45 46  1  0
 46 47  1  0
 47 48  1  0
 48 49  1  0
 49 50  1  0
 50 51  2  0
 50 52  1  0
 52 53  1  0
 53 54  1  0
 54 55  1  0
 55 56  1  0
 55 57  2  0
 53 58  1  0
 58 59  2  0
 58 60  1  0
 60 61  1  0
 61 62  1  0
 62 63  1  0
 63 64  1  0
 64 65  1  0
 64 66  2  0
 61 67  1  0
 67 68  2  0
 67 69  1  0
 69 70  1  0
 70 71  1  0
 71 72  1  0
 72 73  1  0
 73 74  1  0
 74 75  1  0
 75 76  2  3
 75 77  1  0
 70 78  1  0
 78 79  2  0
 78 80  1  0
 81 80  1  6
 81 82  1  0
 82 83  1  0
 83 84  1  0
 84 85  1  0
 85 86  1  0
 86 87  1  0
 87 88  1  0
 81 89  1  0
 81 90  1  0
 90 91  2  0
 90 92  1  0
 92 93  1  0
 93 94  1  0
 94 95  1  0
 95 96  1  0
 95 97  1  0
 93 98  1  0
 98 99  2  0
 98100  1  0
100101  1  0
101102  1  0
102103  1  0
101104  1  0
104105  2  0
104106  1  0
106107  1  0
107108  1  0
108109  1  0
109110  2  0
110111  1  0
111112  2  0
112113  1  0
113114  2  0
107115  1  0
115116  2  0
115117  1  0
117118  1  0
118119  1  0
119120  1  0
120121  2  0
121122  1  0
122123  2  0
123124  1  0
124125  2  0
118126  1  0
126127  2  0
126128  1  0
128129  1  0
129130  1  0
129131  1  0
131132  2  0
131133  1  0
133134  1  0
134135  1  0
135136  1  0
136137  1  0
136138  1  0
134139  1  0
139140  2  0
139141  1  0
141142  1  0
142143  1  0
143144  1  0
144145  1  0
145146  1  0
142147  1  0
142148  1  1
148149  2  0
148150  1  0
150151  1  0
151152  1  0
152153  1  0
153154  2  0
153155  1  0
151156  1  0
156157  2  0
156158  1  0
158159  1  0
159160  1  0
160161  1  0
161162  1  0
162163  1  0
162164  2  0
159165  1  0
165166  2  0
165167  1  0
167168  1  0
168169  1  0
169170  1  0
169171  1  0
171172  1  0
168173  1  0
173174  2  0
173175  1  0
  8  3  1  0
114109  1  0
125120  1  0
 11  6  1  0
 18 13  2  0
 88146  2  0
 22  9  1  0
 26 21  1  0
  2176  1  0
  4177  1  0
  5178  1  0
  8179  1  0
 15180  1  0
 17181  1  0
 18182  1  0
 19183  1  0
 23184  1  0
 24185  1  0
 26186  1  0
 27187  1  0
 29188  1  0
 30189  1  0
 30190  1  0
 31191  1  0
 31192  1  0
 33193  1  0
 33194  1  0
 34195  1  0
 34196  1  0
 36197  1  0
 36198  1  0
 37199  1  0
 37200  1  0
 39201  1  0
 39202  1  0
 40203  1  0
 40204  1  0
 42205  1  0
 42206  1  0
 43207  1  0
 43208  1  0
 45209  1  0
 45210  1  0
 46211  1  0
 46212  1  0
 48213  1  0
 48214  1  0
 49215  1  0
 49216  1  0
 52217  1  0
 53218  1  1
 54219  1  0
 54220  1  0
 56221  1  0
 56222  1  0
 60223  1  0
 61224  1  1
 62225  1  0
 62226  1  0
 63227  1  0
 63228  1  0
 65229  1  0
 65230  1  0
 69231  1  0
 70232  1  1
 71233  1  0
 71234  1  0
 72235  1  0
 72236  1  0
 73237  1  0
 73238  1  0
 74239  1  0
 76240  1  0
 76241  1  0
 77242  1  0
 77243  1  0
 80244  1  0
 82245  1  0
 82246  1  0
 83247  1  0
 83248  1  0
 84249  1  0
 84250  1  0
 85251  1  0
 85252  1  0
 86253  1  0
 86254  1  0
 87255  1  0
 87256  1  0
 88257  1  0
 89258  1  0
 89259  1  0
 89260  1  0
 92261  1  0
 93262  1  6
 94263  1  0
 94264  1  0
 95265  1  0
 96266  1  0
 96267  1  0
 96268  1  0
 97269  1  0
 97270  1  0
 97271  1  0
100272  1  0
101273  1  6
102274  1  0
102275  1  0
103276  1  0
106277  1  0
107278  1  6
108279  1  0
108280  1  0
110281  1  0
111282  1  0
112283  1  0
113284  1  0
114285  1  0
117286  1  0
118287  1  6
119288  1  0
119289  1  0
121290  1  0
122291  1  0
123292  1  0
124293  1  0
125294  1  0
128295  1  0
129296  1  6
130297  1  0
130298  1  0
130299  1  0
133300  1  0
134301  1  6
135302  1  0
135303  1  0
136304  1  0
137305  1  0
137306  1  0
137307  1  0
138308  1  0
138309  1  0
138310  1  0
141311  1  0
143312  1  0
143313  1  0
144314  1  0
144315  1  0
145316  1  0
145317  1  0
146318  1  0
147319  1  0
147320  1  0
147321  1  0
150322  1  0
151323  1  1
152324  1  0
152325  1  0
158326  1  0
159327  1  6
160328  1  0
160329  1  0
161330  1  0
161331  1  0
163332  1  0
163333  1  0
167334  1  0
168335  1  1
169336  1  1
170337  1  0
170338  1  0
170339  1  0
171340  1  0
171341  1  0
172342  1  0
172343  1  0
172344  1  0
M  CHG  3  76   1 155  -1 175  -1
M  END
