
     RDKit          2D

429435  0  0  0  0  0  0  0  0999 V2000
   26.6879    5.1223    0.0000 C   0  0  0  0  0  0  0  0  0  0  0  0
   26.3853    6.5914    0.0000 N   0  0  0  0  0  0  0  0  0  0  0  0
   27.5064    7.5880    0.0000 C   0  0  0  0  0  0  0  0  0  0  0  0
   28.9300    7.1155    0.0000 C   0  0  0  0  0  0  0  0  0  0  0  0
   30.0511    8.1121    0.0000 C   0  0  0  0  0  0  0  0  0  0  0  0
   29.7485    9.5813    0.0000 C   0  0  0  0  0  0  0  0  0  0  0  0
   28.3249   10.0538    0.0000 C   0  0  0  0  0  0  0  0  0  0  0  0
   27.2038    9.0572    0.0000 C   0  0  0  0  0  0  0  0  0  0  0  0
   28.3344   11.5538    0.0000 C   0  0  0  0  0  0  0  0  0  0  0  0
   29.7639   12.0083    0.0000 O   0  0  0  0  0  0  0  0  0  0  0  0
   30.6378   10.7892    0.0000 C   0  0  0  0  0  0  0  0  0  0  0  0
   32.1378   10.7797    0.0000 O   0  0  0  0  0  0  0  0  0  0  0  0
   28.5006   13.0445    0.0000 C   0  0  0  0  0  0  0  0  0  0  0  0
   27.2927   13.9339    0.0000 C   0  0  0  0  0  0  0  0  0  0  0  0
   27.4589   15.4247    0.0000 C   0  0  0  0  0  0  0  0  0  0  0  0
   28.8331   16.0261    0.0000 C   0  0  0  0  0  0  0  0  0  0  0  0
   30.0410   15.1367    0.0000 C   0  0  0  0  0  0  0  0  0  0  0  0
   29.8748   13.6460    0.0000 C   0  0  0  0  0  0  0  0  0  0  0  0
   28.9993   17.5168    0.0000 O   0  0  0  0  0  0  0  0  0  0  0  0
   25.9185   13.3325    0.0000 O   0  0  0  0  0  0  0  0  0  0  0  0
   25.7523   11.8417    0.0000 C   0  0  0  0  0  0  0  0  0  0  0  0
   26.9602   10.9524    0.0000 C   0  0  0  0  0  0  0  0  0  0  0  0
   26.2303    9.8766    0.0000 C   0  0  0  0  0  0  0  0  0  0  0  0
   25.4974    9.5559    0.0000 C   0  0  0  0  0  0  0  0  0  0  0  0
   24.8532   10.0302    0.0000 C   0  0  0  0  0  0  0  0  0  0  0  0
   24.9418   10.8253    0.0000 C   0  0  0  0  0  0  0  0  0  0  0  0
   22.8377    9.1481    0.0000 O   0  0  0  0  0  0  0  0  0  0  0  0
   28.1115    4.6497    0.0000 S   0  0  0  0  0  0  0  0  0  0  0  0
   25.5668    4.1256    0.0000 N   0  0  0  0  0  0  0  0  0  0  0  0
   25.8694    2.6565    0.0000 C   0  0  0  0  0  0  0  0  0  0  0  0
   24.7483    1.6599    0.0000 C   0  0  0  0  0  0  0  0  0  0  0  0
   25.0509    0.1907    0.0000 C   0  0  0  0  0  0  0  0  0  0  0  0
   25.8458    0.1301    0.0000 O   0  0  0  0  0  0  0  0  0  0  0  0
   23.9299   -0.8059    0.0000 N   0  0  0  0  0  0  0  0  0  0  0  0
   24.2324   -2.2751    0.0000 C   0  0  0  0  0  0  0  0  0  0  0  0
   25.6267   -1.7220    0.0000 C   0  0  0  0  0  0  0  0  0  0  0  0
   25.8449   -0.2380    0.0000 C   0  0  0  0  0  0  0  0  0  0  0  0
   27.2392    0.3151    0.0000 C   0  0  0  0  0  0  0  0  0  0  0  0
   25.5423    1.2312    0.0000 C   0  0  0  0  0  0  0  0  0  0  0  0
   24.0143   -3.7591    0.0000 C   0  0  0  0  0  0  0  0  0  0  0  0
   25.3807   -4.3778    0.0000 O   0  0  0  0  0  0  0  0  0  0  0  0
   22.6199   -4.3122    0.0000 N   0  0  0  0  0  0  0  0  0  0  0  0
   22.4018   -5.7963    0.0000 C   0  0  0  0  0  0  0  0  0  0  0  0
   23.9012   -5.7534    0.0000 C   0  0  0  0  0  0  0  0  0  0  0  0
   24.6138   -4.4335    0.0000 C   0  0  0  0  0  0  0  0  0  0  0  0
   26.1131   -4.3906    0.0000 C   0  0  0  0  0  0  0  0  0  0  0  0
   24.8319   -2.9494    0.0000 C   0  0  0  0  0  0  0  0  0  0  0  0
   21.6892   -7.1162    0.0000 C   0  0  0  0  0  0  0  0  0  0  0  0
   22.7616   -8.1650    0.0000 O   0  0  0  0  0  0  0  0  0  0  0  0
   20.1898   -7.1591    0.0000 N   0  0  0  0  0  0  0  0  0  0  0  0
   19.4772   -8.4790    0.0000 C   0  0  0  0  0  0  0  0  0  0  0  0
   20.9008   -8.9515    0.0000 C   0  0  0  0  0  0  0  0  0  0  0  0
   22.0219   -7.9549    0.0000 C   0  0  0  0  0  0  0  0  0  0  0  0
   22.0770   -9.8825    0.0000 C   0  0  0  0  0  0  0  0  0  0  0  0
   23.4713   -9.3294    0.0000 C   0  0  0  0  0  0  0  0  0  0  0  0
   18.3562   -9.4756    0.0000 C   0  0  0  0  0  0  0  0  0  0  0  0
   19.0052  -10.8279    0.0000 O   0  0  0  0  0  0  0  0  0  0  0  0
   16.9325   -9.0030    0.0000 N   0  0  0  0  0  0  0  0  0  0  0  0
   15.8115   -9.9997    0.0000 C   0  0  0  0  0  0  0  0  0  0  0  0
   16.9876  -10.9306    0.0000 C   0  0  0  0  0  0  0  0  0  0  0  0
   18.3819  -10.3775    0.0000 C   0  0  0  0  0  0  0  0  0  0  0  0
   19.5581  -11.3085    0.0000 C   0  0  0  0  0  0  0  0  0  0  0  0
   19.5030   -9.3809    0.0000 C   0  0  0  0  0  0  0  0  0  0  0  0
   14.4172  -10.5527    0.0000 C   0  0  0  0  0  0  0  0  0  0  0  0
   14.5646  -12.0455    0.0000 O   0  0  0  0  0  0  0  0  0  0  0  0
   13.2410   -9.6218    0.0000 N   0  0  0  0  0  0  0  0  0  0  0  0
   11.8467  -10.1749    0.0000 C   0  0  0  0  0  0  0  0  0  0  0  0
   12.6335  -11.4520    0.0000 C   0  0  0  0  0  0  0  0  0  0  0  0
   14.1329  -11.4091    0.0000 C   0  0  0  0  0  0  0  0  0  0  0  0
   14.9197  -12.6862    0.0000 C   0  0  0  0  0  0  0  0  0  0  0  0
   16.4132  -12.8264    0.0000 N   0  0  0  0  0  0  0  0  0  0  0  0
   14.2071  -14.0061    0.0000 O   0  0  0  0  0  0  0  0  0  0  0  0
   10.3473  -10.2177    0.0000 C   0  0  0  0  0  0  0  0  0  0  0  0
    9.9753  -11.6709    0.0000 O   0  0  0  0  0  0  0  0  0  0  0  0
    9.5605   -8.9406    0.0000 N   0  0  0  0  0  0  0  0  0  0  0  0
    8.0612   -8.9835    0.0000 C   0  0  0  0  0  0  0  0  0  0  0  0
    8.3637  -10.4527    0.0000 C   0  0  0  0  0  0  0  0  0  0  0  0
    9.7873  -10.9252    0.0000 C   0  0  0  0  0  0  0  0  0  0  0  0
   10.0899  -12.3944    0.0000 C   0  0  0  0  0  0  0  0  0  0  0  0
   11.4453  -13.0369    0.0000 N   0  0  0  0  0  0  0  0  0  0  0  0
    8.9689  -13.3910    0.0000 O   0  0  0  0  0  0  0  0  0  0  0  0
    6.6375   -8.5109    0.0000 C   0  0  0  0  0  0  0  0  0  0  0  0
    5.6463   -9.6368    0.0000 O   0  0  0  0  0  0  0  0  0  0  0  0
    6.3350   -7.0418    0.0000 N   0  0  0  0  0  0  0  0  0  0  0  0
    4.9114   -6.5692    0.0000 C   0  0  0  0  0  0  0  0  0  0  0  0
    4.6932   -8.0533    0.0000 C   0  0  0  0  0  0  0  0  0  0  0  0
    3.7352   -5.6382    0.0000 C   0  0  0  0  0  0  0  0  0  0  0  0
    2.4187   -6.3572    0.0000 O   0  0  0  0  0  0  0  0  0  0  0  0
    3.9534   -4.1542    0.0000 N   0  0  0  0  0  0  0  0  0  0  0  0
    2.7772   -3.2232    0.0000 C   0  0  0  0  0  0  0  0  0  0  0  0
    2.0647   -4.5432    0.0000 C   0  0  0  0  0  0  0  0  0  0  0  0
    2.6899   -5.9066    0.0000 C   0  0  0  0  0  0  0  0  0  0  0  0
    1.9904   -1.9461    0.0000 C   0  0  0  0  0  0  0  0  0  0  0  0
    0.6060   -2.5236    0.0000 O   0  0  0  0  0  0  0  0  0  0  0  0
    2.7030   -0.6262    0.0000 N   0  0  0  0  0  0  0  0  0  0  0  0
    1.9162    0.6509    0.0000 C   0  0  0  0  0  0  0  0  0  0  0  0
    1.0758   -0.5916    0.0000 C   0  0  0  0  0  0  0  0  0  0  0  0
   -0.0936   -1.5310    0.0000 C   0  0  0  0  0  0  0  0  0  0  0  0
   -1.4879   -2.0841    0.0000 C   0  0  0  0  0  0  0  0  0  0  0  0
   -2.9833   -2.2017    0.0000 C   0  0  0  0  0  0  0  0  0  0  0  0
    3.4039    0.8428    0.0000 C   0  0  0  0  0  0  0  0  0  0  0  0
    2.3531    2.0858    0.0000 C   0  0  0  0  0  0  0  0  0  0  0  0
    3.8372    1.8677    0.0000 O   0  0  0  0  0  0  0  0  0  0  0  0
    2.3477    3.5858    0.0000 N   0  0  0  0  0  0  0  0  0  0  0  0
    1.9003    5.0176    0.0000 C   0  0  0  0  0  0  0  0  0  0  0  0
    2.6778    6.3003    0.0000 C   0  0  0  0  0  0  0  0  0  0  0  0
    4.1775    6.2684    0.0000 C   0  0  0  0  0  0  0  0  0  0  0  0
    1.0509    6.2538    0.0000 C   0  0  0  0  0  0  0  0  0  0  0  0
    2.1467    7.2781    0.0000 O   0  0  0  0  0  0  0  0  0  0  0  0
   -0.1253    7.1848    0.0000 N   0  0  0  0  0  0  0  0  0  0  0  0
   -1.5236    7.7277    0.0000 C   0  0  0  0  0  0  0  0  0  0  0  0
   -2.0417    9.1354    0.0000 C   0  0  0  0  0  0  0  0  0  0  0  0
   -0.9484   10.1623    0.0000 C   0  0  0  0  0  0  0  0  0  0  0  0
   -3.0101   10.2809    0.0000 C   0  0  0  0  0  0  0  0  0  0  0  0
   -2.5022   11.6923    0.0000 C   0  0  0  0  0  0  0  0  0  0  0  0
   -3.0198    7.8344    0.0000 C   0  0  0  0  0  0  0  0  0  0  0  0
   -3.3187    9.3043    0.0000 O   0  0  0  0  0  0  0  0  0  0  0  0
   -4.4810    7.4953    0.0000 N   0  0  0  0  0  0  0  0  0  0  0  0
   -5.7773    6.7406    0.0000 C   0  0  0  0  0  0  0  0  0  0  0  0
   -7.2009    7.2131    0.0000 C   0  0  0  0  0  0  0  0  0  0  0  0
   -7.5034    8.6823    0.0000 C   0  0  0  0  0  0  0  0  0  0  0  0
   -8.9271    9.1548    0.0000 C   0  0  0  0  0  0  0  0  0  0  0  0
   -7.1060   10.1287    0.0000 C   0  0  0  0  0  0  0  0  0  0  0  0
   -6.7935    5.6373    0.0000 C   0  0  0  0  0  0  0  0  0  0  0  0
   -7.7956    6.7534    0.0000 O   0  0  0  0  0  0  0  0  0  0  0  0
   -7.4394    4.2835    0.0000 N   0  0  0  0  0  0  0  0  0  0  0  0
   -7.6576    2.7994    0.0000 C   0  0  0  0  0  0  0  0  0  0  0  0
   -7.4286    1.3170    0.0000 C   0  0  0  0  0  0  0  0  0  0  0  0
   -6.7729   -0.0321    0.0000 C   0  0  0  0  0  0  0  0  0  0  0  0
   -5.7486   -1.1279    0.0000 C   0  0  0  0  0  0  0  0  0  0  0  0
   -4.4469   -1.8732    0.0000 C   0  0  0  0  0  0  0  0  0  0  0  0
   -7.8757    1.3154    0.0000 C   0  0  0  0  0  0  0  0  0  0  0  0
   -8.5217   -0.0384    0.0000 C   0  0  0  0  0  0  0  0  0  0  0  0
   -9.5379   -1.1417    0.0000 C   0  0  0  0  0  0  0  0  0  0  0  0
  -10.8342   -1.8964    0.0000 C   0  0  0  0  0  0  0  0  0  0  0  0
   -7.8865    4.2818    0.0000 C   0  0  0  0  0  0  0  0  0  0  0  0
   -6.4548    4.7292    0.0000 O   0  0  0  0  0  0  0  0  0  0  0  0
   -8.5423    5.6309    0.0000 N   0  0  0  0  0  0  0  0  0  0  0  0
   -9.5665    6.7268    0.0000 C   0  0  0  0  0  0  0  0  0  0  0  0
   -9.4226    8.2199    0.0000 C   0  0  0  0  0  0  0  0  0  0  0  0
   -8.0576    8.8418    0.0000 C   0  0  0  0  0  0  0  0  0  0  0  0
   -8.0967   10.3413    0.0000 C   0  0  0  0  0  0  0  0  0  0  0  0
   -6.5877    9.1407    0.0000 C   0  0  0  0  0  0  0  0  0  0  0  0
  -10.8683    7.4721    0.0000 C   0  0  0  0  0  0  0  0  0  0  0  0
  -10.4998    8.9261    0.0000 O   0  0  0  0  0  0  0  0  0  0  0  0
  -12.3319    7.8005    0.0000 N   0  0  0  0  0  0  0  0  0  0  0  0
  -13.8273    7.6830    0.0000 C   0  0  0  0  0  0  0  0  0  0  0  0
  -14.9049    8.7264    0.0000 C   0  0  0  0  0  0  0  0  0  0  0  0
  -14.5400   10.1814    0.0000 C   0  0  0  0  0  0  0  0  0  0  0  0
  -15.6176   11.2248    0.0000 C   0  0  0  0  0  0  0  0  0  0  0  0
  -15.2528   12.6798    0.0000 O   0  0  0  0  0  0  0  0  0  0  0  0
  -17.0601   10.8133    0.0000 O   0  0  0  0  0  0  0  0  0  0  0  0
  -15.2216    7.1299    0.0000 C   0  0  0  0  0  0  0  0  0  0  0  0
  -15.9763    8.4262    0.0000 O   0  0  0  0  0  0  0  0  0  0  0  0
  -16.3909    6.1904    0.0000 N   0  0  0  0  0  0  0  0  0  0  0  0
  -17.2314    4.9480    0.0000 C   0  0  0  0  0  0  0  0  0  0  0  0
  -18.7191    4.7560    0.0000 C   0  0  0  0  0  0  0  0  0  0  0  0
  -19.6291    5.9484    0.0000 C   0  0  0  0  0  0  0  0  0  0  0  0
  -21.1168    5.7565    0.0000 C   0  0  0  0  0  0  0  0  0  0  0  0
  -22.0268    6.9489    0.0000 N   0  0  0  0  0  0  0  0  0  0  0  0
  -21.6944    4.3722    0.0000 O   0  0  0  0  0  0  0  0  0  0  0  0
  -17.6683    3.5130    0.0000 C   0  0  0  0  0  0  0  0  0  0  0  0
  -19.1523    3.7312    0.0000 O   0  0  0  0  0  0  0  0  0  0  0  0
  -17.6628    2.0130    0.0000 N   0  0  0  0  0  0  0  0  0  0  0  0
  -17.2155    0.5813    0.0000 C   0  0  0  0  0  0  0  0  0  0  0  0
  -16.3660   -0.6550    0.0000 C   0  0  0  0  0  0  0  0  0  0  0  0
  -15.1899   -1.5860    0.0000 C   0  0  0  0  0  0  0  0  0  0  0  0
  -13.7916   -2.1289    0.0000 C   0  0  0  0  0  0  0  0  0  0  0  0
  -12.2954   -2.2355    0.0000 C   0  0  0  0  0  0  0  0  0  0  0  0
  -18.7045    0.7624    0.0000 C   0  0  0  0  0  0  0  0  0  0  0  0
  -17.9930   -0.7015    0.0000 C   0  0  0  0  0  0  0  0  0  0  0  0
  -17.6104   -2.1519    0.0000 O   0  0  0  0  0  0  0  0  0  0  0  0
  -19.4927   -0.6695    0.0000 N   0  0  0  0  0  0  0  0  0  0  0  0
  -20.2701   -1.9523    0.0000 C   0  0  0  0  0  0  0  0  0  0  0  0
  -20.5620   -3.4236    0.0000 C   0  0  0  0  0  0  0  0  0  0  0  0
  -21.9127   -4.0761    0.0000 C   0  0  0  0  0  0  0  0  0  0  0  0
  -21.7698   -1.9204    0.0000 C   0  0  0  0  0  0  0  0  0  0  0  0
  -22.4920   -0.6057    0.0000 O   0  0  0  0  0  0  0  0  0  0  0  0
  -22.5473   -3.2031    0.0000 N   0  0  0  0  0  0  0  0  0  0  0  0
  -24.0470   -3.1712    0.0000 C   0  0  0  0  0  0  0  0  0  0  0  0
  -25.4452   -2.6283    0.0000 C   0  0  0  0  0  0  0  0  0  0  0  0
  -25.6742   -1.1459    0.0000 C   0  0  0  0  0  0  0  0  0  0  0  0
  -27.0725   -0.6029    0.0000 C   0  0  0  0  0  0  0  0  0  0  0  0
  -27.3015    0.8795    0.0000 N   0  0  0  0  0  0  0  0  0  0  0  0
  -28.6998    1.4224    0.0000 C   0  0  0  0  0  0  0  0  0  0  0  0
  -28.9287    2.9049    0.0000 N   0  0  0  0  0  0  0  0  0  0  0  0
  -29.8691    0.4829    0.0000 N   0  0  0  0  0  0  0  0  0  0  0  0
  -24.8244   -4.4540    0.0000 C   0  0  0  0  0  0  0  0  0  0  0  0
  -24.1023   -5.7687    0.0000 O   0  0  0  0  0  0  0  0  0  0  0  0
  -26.3241   -4.4220    0.0000 N   0  0  0  0  0  0  0  0  0  0  0  0
  -27.1016   -5.7048    0.0000 C   0  0  0  0  0  0  0  0  0  0  0  0
  -27.3935   -7.1761    0.0000 C   0  0  0  0  0  0  0  0  0  0  0  0
  -28.8136   -7.6590    0.0000 C   0  0  0  0  0  0  0  0  0  0  0  0
  -29.1055   -9.1304    0.0000 C   0  0  0  0  0  0  0  0  0  0  0  0
  -30.4562   -9.7828    0.0000 O   0  0  0  0  0  0  0  0  0  0  0  0
  -27.9772  -10.1188    0.0000 O   0  0  0  0  0  0  0  0  0  0  0  0
  -28.6013   -5.6729    0.0000 C   0  0  0  0  0  0  0  0  0  0  0  0
  -29.3234   -4.3582    0.0000 O   0  0  0  0  0  0  0  0  0  0  0  0
  -29.3788   -6.9556    0.0000 N   0  0  0  0  0  0  0  0  0  0  0  0
  -30.8784   -6.9237    0.0000 C   0  0  0  0  0  0  0  0  0  0  0  0
  -32.2767   -6.3808    0.0000 C   0  0  0  0  0  0  0  0  0  0  0  0
  -32.5057   -4.8983    0.0000 C   0  0  0  0  0  0  0  0  0  0  0  0
  -33.9040   -4.3554    0.0000 C   0  0  0  0  0  0  0  0  0  0  0  0
  -34.1329   -2.8730    0.0000 N   0  0  0  0  0  0  0  0  0  0  0  0
  -35.5312   -2.3301    0.0000 C   0  0  0  0  0  0  0  0  0  0  0  0
  -35.7602   -0.8476    0.0000 N   0  0  0  0  0  0  0  0  0  0  0  0
  -36.7005   -3.2696    0.0000 N   0  0  0  0  0  0  0  0  0  0  0  0
  -31.6559   -8.2065    0.0000 C   0  0  0  0  0  0  0  0  0  0  0  0
  -33.1483   -8.3576    0.0000 O   0  0  0  0  0  0  0  0  0  0  0  0
  -31.0994   -9.5994    0.0000 O   0  0  0  0  0  0  0  0  0  0  0  0
   24.9147    6.8869    0.0000 H   0  0  0  0  0  0  0  0  0  0  0  0
   29.2326    5.6463    0.0000 H   0  0  0  0  0  0  0  0  0  0  0  0
   31.4747    7.6395    0.0000 H   0  0  0  0  0  0  0  0  0  0  0  0
   25.7082    9.1712    0.0000 H   0  0  0  0  0  0  0  0  0  0  0  0
   26.2510   16.3140    0.0000 H   0  0  0  0  0  0  0  0  0  0  0  0
   31.4152   15.7381    0.0000 H   0  0  0  0  0  0  0  0  0  0  0  0
   31.0827   12.7566    0.0000 H   0  0  0  0  0  0  0  0  0  0  0  0
   30.3735   18.1182    0.0000 H   0  0  0  0  0  0  0  0  0  0  0  0
   28.0019    8.5723    0.0000 H   0  0  0  0  0  0  0  0  0  0  0  0
   25.0731    7.4008    0.0000 H   0  0  0  0  0  0  0  0  0  0  0  0
   23.1702   12.1297    0.0000 H   0  0  0  0  0  0  0  0  0  0  0  0
   21.6298   10.0375    0.0000 H   0  0  0  0  0  0  0  0  0  0  0  0
   24.1432    4.5982    0.0000 H   0  0  0  0  0  0  0  0  0  0  0  0
   27.2637    3.2096    0.0000 H   0  0  0  0  0  0  0  0  0  0  0  0
   26.9418    1.6077    0.0000 H   0  0  0  0  0  0  0  0  0  0  0  0
   23.8117    2.8315    0.0000 H   0  0  0  0  0  0  0  0  0  0  0  0
   23.2970    1.2809    0.0000 H   0  0  0  0  0  0  0  0  0  0  0  0
   22.5062   -0.3334    0.0000 H   0  0  0  0  0  0  0  0  0  0  0  0
   22.7390   -2.1349    0.0000 H   0  0  0  0  0  0  0  0  0  0  0  0
   27.1202   -1.8622    0.0000 H   0  0  0  0  0  0  0  0  0  0  0  0
   26.2758   -3.0743    0.0000 H   0  0  0  0  0  0  0  0  0  0  0  0
   24.3797    0.0833    0.0000 H   0  0  0  0  0  0  0  0  0  0  0  0
   27.8100    1.7023    0.0000 H   0  0  0  0  0  0  0  0  0  0  0  0
   28.7386    0.3580    0.0000 H   0  0  0  0  0  0  0  0  0  0  0  0
   27.7186   -1.1062    0.0000 H   0  0  0  0  0  0  0  0  0  0  0  0
   26.6634    2.2278    0.0000 H   0  0  0  0  0  0  0  0  0  0  0  0
   24.9171    2.5947    0.0000 H   0  0  0  0  0  0  0  0  0  0  0  0
   24.2258    0.5123    0.0000 H   0  0  0  0  0  0  0  0  0  0  0  0
   21.4438   -3.3813    0.0000 H   0  0  0  0  0  0  0  0  0  0  0  0
   20.9782   -5.3237    0.0000 H   0  0  0  0  0  0  0  0  0  0  0  0
   25.2566   -6.3960    0.0000 H   0  0  0  0  0  0  0  0  0  0  0  0
   23.6830   -7.2375    0.0000 H   0  0  0  0  0  0  0  0  0  0  0  0
   23.3468   -3.6305    0.0000 H   0  0  0  0  0  0  0  0  0  0  0  0
   27.1239   -3.2824    0.0000 H   0  0  0  0  0  0  0  0  0  0  0  0
   27.5368   -4.8632    0.0000 H   0  0  0  0  0  0  0  0  0  0  0  0
   26.0775   -5.8902    0.0000 H   0  0  0  0  0  0  0  0  0  0  0  0
   26.2262   -2.3964    0.0000 H   0  0  0  0  0  0  0  0  0  0  0  0
   24.8938   -1.4507    0.0000 H   0  0  0  0  0  0  0  0  0  0  0  0
   23.3489   -3.1747    0.0000 H   0  0  0  0  0  0  0  0  0  0  0  0
   19.4030   -5.8820    0.0000 H   0  0  0  0  0  0  0  0  0  0  0  0
   18.4233   -7.4116    0.0000 H   0  0  0  0  0  0  0  0  0  0  0  0
   20.5288  -10.4047    0.0000 H   0  0  0  0  0  0  0  0  0  0  0  0
   23.4925   -8.2504    0.0000 H   0  0  0  0  0  0  0  0  0  0  0  0
   22.7345   -6.6350    0.0000 H   0  0  0  0  0  0  0  0  0  0  0  0
   21.1442   -6.7439    0.0000 H   0  0  0  0  0  0  0  0  0  0  0  0
   22.8638  -11.1596    0.0000 H   0  0  0  0  0  0  0  0  0  0  0  0
   21.0858  -11.0083    0.0000 H   0  0  0  0  0  0  0  0  0  0  0  0
   24.6474  -10.2604    0.0000 H   0  0  0  0  0  0  0  0  0  0  0  0
   24.5923   -8.3328    0.0000 H   0  0  0  0  0  0  0  0  0  0  0  0
   23.1945   -7.8552    0.0000 H   0  0  0  0  0  0  0  0  0  0  0  0
   16.6300   -7.5339    0.0000 H   0  0  0  0  0  0  0  0  0  0  0  0
   15.0247   -8.7226    0.0000 H   0  0  0  0  0  0  0  0  0  0  0  0
   17.6129  -12.2941    0.0000 H   0  0  0  0  0  0  0  0  0  0  0  0
   15.9964  -12.0565    0.0000 H   0  0  0  0  0  0  0  0  0  0  0  0
   17.9275   -8.9480    0.0000 H   0  0  0  0  0  0  0  0  0  0  0  0
   21.0580  -11.2919    0.0000 H   0  0  0  0  0  0  0  0  0  0  0  0
   20.3449  -12.5856    0.0000 H   0  0  0  0  0  0  0  0  0  0  0  0
   18.5669  -12.4343    0.0000 H   0  0  0  0  0  0  0  0  0  0  0  0
   20.9266   -9.8535    0.0000 H   0  0  0  0  0  0  0  0  0  0  0  0
   20.5138   -8.2726    0.0000 H   0  0  0  0  0  0  0  0  0  0  0  0
   18.2221   -8.6003    0.0000 H   0  0  0  0  0  0  0  0  0  0  0  0
   13.4592   -8.1377    0.0000 H   0  0  0  0  0  0  0  0  0  0  0  0
   11.5442   -8.7057    0.0000 H   0  0  0  0  0  0  0  0  0  0  0  0
   12.9361  -12.9211    0.0000 H   0  0  0  0  0  0  0  0  0  0  0  0
   11.3170  -12.1709    0.0000 H   0  0  0  0  0  0  0  0  0  0  0  0
   15.5272  -10.8560    0.0000 H   0  0  0  0  0  0  0  0  0  0  0  0
   14.1949   -9.9104    0.0000 H   0  0  0  0  0  0  0  0  0  0  0  0
   17.2059  -13.9204    0.0000 H   0  0  0  0  0  0  0  0  0  0  0  0
   17.4740  -11.5419    0.0000 H   0  0  0  0  0  0  0  0  0  0  0  0
   10.2731   -7.6207    0.0000 H   0  0  0  0  0  0  0  0  0  0  0  0
    8.2793   -7.4994    0.0000 H   0  0  0  0  0  0  0  0  0  0  0  0
    8.1456  -11.9367    0.0000 H   0  0  0  0  0  0  0  0  0  0  0  0
    6.8643  -10.4955    0.0000 H   0  0  0  0  0  0  0  0  0  0  0  0
   11.2867  -10.8824    0.0000 H   0  0  0  0  0  0  0  0  0  0  0  0
   10.3581   -9.5381    0.0000 H   0  0  0  0  0  0  0  0  0  0  0  0
   11.8161  -14.3361    0.0000 H   0  0  0  0  0  0  0  0  0  0  0  0
   12.8815  -12.1928    0.0000 H   0  0  0  0  0  0  0  0  0  0  0  0
    7.4560   -6.0451    0.0000 H   0  0  0  0  0  0  0  0  0  0  0  0
    5.6239   -5.2493    0.0000 H   0  0  0  0  0  0  0  0  0  0  0  0
    5.7471   -9.1206    0.0000 H   0  0  0  0  0  0  0  0  0  0  0  0
    3.9806   -9.3732    0.0000 H   0  0  0  0  0  0  0  0  0  0  0  0
    3.2696   -7.5807    0.0000 H   0  0  0  0  0  0  0  0  0  0  0  0
    5.3477   -3.6011    0.0000 H   0  0  0  0  0  0  0  0  0  0  0  0
    3.8983   -2.2266    0.0000 H   0  0  0  0  0  0  0  0  0  0  0  0
    0.9436   -5.5398    0.0000 H   0  0  0  0  0  0  0  0  0  0  0  0
    0.8885   -3.6122    0.0000 H   0  0  0  0  0  0  0  0  0  0  0  0
    2.1389   -7.1402    0.0000 H   0  0  0  0  0  0  0  0  0  0  0  0
    4.0276   -6.7512    0.0000 H   0  0  0  0  0  0  0  0  0  0  0  0
    4.1965   -5.1662    0.0000 H   0  0  0  0  0  0  0  0  0  0  0  0
    4.1965   -0.7665    0.0000 H   0  0  0  0  0  0  0  0  0  0  0  0
    2.4482   -1.1967    0.0000 H   0  0  0  0  0  0  0  0  0  0  0  0
    1.2713   -2.0787    0.0000 H   0  0  0  0  0  0  0  0  0  0  0  0
    0.7681   -2.7589    0.0000 H   0  0  0  0  0  0  0  0  0  0  0  0
    0.0203   -3.0267    0.0000 H   0  0  0  0  0  0  0  0  0  0  0  0
   -0.5455   -3.2512    0.0000 H   0  0  0  0  0  0  0  0  0  0  0  0
   -1.9958   -3.4955    0.0000 H   0  0  0  0  0  0  0  0  0  0  0  0
   -3.0899   -3.6979    0.0000 H   0  0  0  0  0  0  0  0  0  0  0  0
    4.4525   -0.2298    0.0000 H   0  0  0  0  0  0  0  0  0  0  0  0
    4.7362    1.5320    0.0000 H   0  0  0  0  0  0  0  0  0  0  0  0
    3.3163    2.3402    0.0000 H   0  0  0  0  0  0  0  0  0  0  0  0
    3.8301    3.8148    0.0000 H   0  0  0  0  0  0  0  0  0  0  0  0
    3.3562    4.6563    0.0000 H   0  0  0  0  0  0  0  0  0  0  0  0
    2.9697    7.7717    0.0000 H   0  0  0  0  0  0  0  0  0  0  0  0
    1.4525    7.1655    0.0000 H   0  0  0  0  0  0  0  0  0  0  0  0
    4.9550    7.5512    0.0000 H   0  0  0  0  0  0  0  0  0  0  0  0
    5.5758    5.7255    0.0000 H   0  0  0  0  0  0  0  0  0  0  0  0
    4.0671    4.7725    0.0000 H   0  0  0  0  0  0  0  0  0  0  0  0
    0.6200    8.4866    0.0000 H   0  0  0  0  0  0  0  0  0  0  0  0
   -0.3334    8.6407    0.0000 H   0  0  0  0  0  0  0  0  0  0  0  0
   -3.4821    8.7168    0.0000 H   0  0  0  0  0  0  0  0  0  0  0  0
   -1.4081   11.7636    0.0000 H   0  0  0  0  0  0  0  0  0  0  0  0
    0.2146   11.0427    0.0000 H   0  0  0  0  0  0  0  0  0  0  0  0
    0.0190    9.2690    0.0000 H   0  0  0  0  0  0  0  0  0  0  0  0
   -4.3118   11.0262    0.0000 H   0  0  0  0  0  0  0  0  0  0  0  0
   -4.1034    9.2540    0.0000 H   0  0  0  0  0  0  0  0  0  0  0  0
   -3.4705   12.8379    0.0000 H   0  0  0  0  0  0  0  0  0  0  0  0
   -1.5422   12.8449    0.0000 H   0  0  0  0  0  0  0  0  0  0  0  0
   -1.0588   11.2842    0.0000 H   0  0  0  0  0  0  0  0  0  0  0  0
   -4.8600    8.9466    0.0000 H   0  0  0  0  0  0  0  0  0  0  0  0
   -5.5664    8.2257    0.0000 H   0  0  0  0  0  0  0  0  0  0  0  0
   -8.7003    7.1703    0.0000 H   0  0  0  0  0  0  0  0  0  0  0  0
   -7.9365    5.9059    0.0000 H   0  0  0  0  0  0  0  0  0  0  0  0
   -6.0100    8.5420    0.0000 H   0  0  0  0  0  0  0  0  0  0  0  0
   -9.5761   10.5071    0.0000 H   0  0  0  0  0  0  0  0  0  0  0  0
  -10.3923    9.4761    0.0000 H   0  0  0  0  0  0  0  0  0  0  0  0
   -8.9627    7.6553    0.0000 H   0  0  0  0  0  0  0  0  0  0  0  0
   -5.8910   10.7194    0.0000 H   0  0  0  0  0  0  0  0  0  0  0  0
   -7.4006   11.6830    0.0000 H   0  0  0  0  0  0  0  0  0  0  0  0
   -8.7847   10.1235    0.0000 H   0  0  0  0  0  0  0  0  0  0  0  0
   -8.8744    4.7204    0.0000 H   0  0  0  0  0  0  0  0  0  0  0  0
   -8.2410    0.0560    0.0000 H   0  0  0  0  0  0  0  0  0  0  0  0
   -8.8740    1.7180    0.0000 H   0  0  0  0  0  0  0  0  0  0  0  0
   -7.1775   -1.4765    0.0000 H   0  0  0  0  0  0  0  0  0  0  0  0
   -8.1573   -0.6095    0.0000 H   0  0  0  0  0  0  0  0  0  0  0  0
   -5.8926   -2.6210    0.0000 H   0  0  0  0  0  0  0  0  0  0  0  0
   -7.0097   -1.9401    0.0000 H   0  0  0  0  0  0  0  0  0  0  0  0
   -4.9898   -3.2715    0.0000 H   0  0  0  0  0  0  0  0  0  0  0  0
   -6.4333    1.7269    0.0000 H   0  0  0  0  0  0  0  0  0  0  0  0
   -7.0543    0.0603    0.0000 H   0  0  0  0  0  0  0  0  0  0  0  0
   -7.1331   -0.6058    0.0000 H   0  0  0  0  0  0  0  0  0  0  0  0
   -8.1066   -1.4799    0.0000 H   0  0  0  0  0  0  0  0  0  0  0  0
   -8.2709   -1.9447    0.0000 H   0  0  0  0  0  0  0  0  0  0  0  0
   -9.3831   -2.6337    0.0000 H   0  0  0  0  0  0  0  0  0  0  0  0
  -10.2811   -3.2907    0.0000 H   0  0  0  0  0  0  0  0  0  0  0  0
   -7.8497    6.9614    0.0000 H   0  0  0  0  0  0  0  0  0  0  0  0
   -8.2158    7.3792    0.0000 H   0  0  0  0  0  0  0  0  0  0  0  0
  -10.1383    9.5381    0.0000 H   0  0  0  0  0  0  0  0  0  0  0  0
  -10.9020    8.4677    0.0000 H   0  0  0  0  0  0  0  0  0  0  0  0
   -7.8620    7.3546    0.0000 H   0  0  0  0  0  0  0  0  0  0  0  0
   -6.7436   11.3130    0.0000 H   0  0  0  0  0  0  0  0  0  0  0  0
   -8.4639   11.7529    0.0000 H   0  0  0  0  0  0  0  0  0  0  0  0
   -9.3663   10.6959    0.0000 H   0  0  0  0  0  0  0  0  0  0  0  0
   -5.6526   10.1158    0.0000 H   0  0  0  0  0  0  0  0  0  0  0  0
   -5.0058    9.1242    0.0000 H   0  0  0  0  0  0  0  0  0  0  0  0
   -7.1078    7.5446    0.0000 H   0  0  0  0  0  0  0  0  0  0  0  0
  -12.2252    9.2967    0.0000 H   0  0  0  0  0  0  0  0  0  0  0  0
  -13.1511    9.0219    0.0000 H   0  0  0  0  0  0  0  0  0  0  0  0
  -16.2744    9.3384    0.0000 H   0  0  0  0  0  0  0  0  0  0  0  0
  -16.0210    7.7243    0.0000 H   0  0  0  0  0  0  0  0  0  0  0  0
  -13.6996   11.4238    0.0000 H   0  0  0  0  0  0  0  0  0  0  0  0
  -13.1061    9.7409    0.0000 H   0  0  0  0  0  0  0  0  0  0  0  0
  -17.4942    7.2067    0.0000 H   0  0  0  0  0  0  0  0  0  0  0  0
  -17.8566    6.3114    0.0000 H   0  0  0  0  0  0  0  0  0  0  0  0
  -20.0514    4.0669    0.0000 H   0  0  0  0  0  0  0  0  0  0  0  0
  -18.6314    3.2586    0.0000 H   0  0  0  0  0  0  0  0  0  0  0  0
  -20.0764    7.3802    0.0000 H   0  0  0  0  0  0  0  0  0  0  0  0
  -18.3907    6.7949    0.0000 H   0  0  0  0  0  0  0  0  0  0  0  0
  -23.5145    6.7570    0.0000 H   0  0  0  0  0  0  0  0  0  0  0  0
  -21.4492    8.3332    0.0000 H   0  0  0  0  0  0  0  0  0  0  0  0
  -19.1453    1.7841    0.0000 H   0  0  0  0  0  0  0  0  0  0  0  0
  -16.7309   -2.1099    0.0000 H   0  0  0  0  0  0  0  0  0  0  0  0
  -17.7341   -1.2701    0.0000 H   0  0  0  0  0  0  0  0  0  0  0  0
  -15.2928   -3.0824    0.0000 H   0  0  0  0  0  0  0  0  0  0  0  0
  -16.3158   -2.5770    0.0000 H   0  0  0  0  0  0  0  0  0  0  0  0
  -13.2734   -3.5365    0.0000 H   0  0  0  0  0  0  0  0  0  0  0  0
  -14.7254   -3.3027    0.0000 H   0  0  0  0  0  0  0  0  0  0  0  0
  -12.1778   -3.7309    0.0000 H   0  0  0  0  0  0  0  0  0  0  0  0
  -19.8692   -0.1829    0.0000 H   0  0  0  0  0  0  0  0  0  0  0  0
  -19.9490    1.5998    0.0000 H   0  0  0  0  0  0  0  0  0  0  0  0
  -18.6278    2.2604    0.0000 H   0  0  0  0  0  0  0  0  0  0  0  0
  -20.3697    0.5473    0.0000 H   0  0  0  0  0  0  0  0  0  0  0  0
  -18.8718   -2.4952    0.0000 H   0  0  0  0  0  0  0  0  0  0  0  0
  -20.3331   -4.9061    0.0000 H   0  0  0  0  0  0  0  0  0  0  0  0
  -19.0624   -3.4556    0.0000 H   0  0  0  0  0  0  0  0  0  0  0  0
  -22.2740   -5.3779    0.0000 H   0  0  0  0  0  0  0  0  0  0  0  0
  -23.4818   -3.8746    0.0000 H   0  0  0  0  0  0  0  0  0  0  0  0
  -22.8804   -2.7052    0.0000 H   0  0  0  0  0  0  0  0  0  0  0  0
  -21.9908   -4.5961    0.0000 H   0  0  0  0  0  0  0  0  0  0  0  0
  -23.5779   -1.7464    0.0000 H   0  0  0  0  0  0  0  0  0  0  0  0
  -26.9449   -2.5963    0.0000 H   0  0  0  0  0  0  0  0  0  0  0  0
  -26.0845   -3.9853    0.0000 H   0  0  0  0  0  0  0  0  0  0  0  0
  -25.3823    0.3255    0.0000 H   0  0  0  0  0  0  0  0  0  0  0  0
  -24.1818   -0.9948    0.0000 H   0  0  0  0  0  0  0  0  0  0  0  0
  -28.5722   -0.5710    0.0000 H   0  0  0  0  0  0  0  0  0  0  0  0
  -27.5415   -2.0277    0.0000 H   0  0  0  0  0  0  0  0  0  0  0  0
  -26.1321    1.8190    0.0000 H   0  0  0  0  0  0  0  0  0  0  0  0
  -30.3270    3.4478    0.0000 H   0  0  0  0  0  0  0  0  0  0  0  0
  -27.7594    3.8443    0.0000 H   0  0  0  0  0  0  0  0  0  0  0  0
  -31.2674    1.0259    0.0000 H   0  0  0  0  0  0  0  0  0  0  0  0
  -29.6401   -0.9995    0.0000 H   0  0  0  0  0  0  0  0  0  0  0  0
  -27.2011   -3.2052    0.0000 H   0  0  0  0  0  0  0  0  0  0  0  0
  -25.7033   -6.2477    0.0000 H   0  0  0  0  0  0  0  0  0  0  0  0
  -27.1645   -8.6586    0.0000 H   0  0  0  0  0  0  0  0  0  0  0  0
  -25.8938   -7.2081    0.0000 H   0  0  0  0  0  0  0  0  0  0  0  0
  -30.3133   -7.6271    0.0000 H   0  0  0  0  0  0  0  0  0  0  0  0
  -29.7119   -6.4577    0.0000 H   0  0  0  0  0  0  0  0  0  0  0  0
  -28.9962   -8.4060    0.0000 H   0  0  0  0  0  0  0  0  0  0  0  0
  -30.4094   -5.4989    0.0000 H   0  0  0  0  0  0  0  0  0  0  0  0
  -33.7691   -6.5319    0.0000 H   0  0  0  0  0  0  0  0  0  0  0  0
  -32.7457   -7.8055    0.0000 H   0  0  0  0  0  0  0  0  0  0  0  0
  -32.2138   -3.4270    0.0000 H   0  0  0  0  0  0  0  0  0  0  0  0
  -31.0133   -4.7472    0.0000 H   0  0  0  0  0  0  0  0  0  0  0  0
  -35.4036   -4.3235    0.0000 H   0  0  0  0  0  0  0  0  0  0  0  0
  -34.3730   -5.7802    0.0000 H   0  0  0  0  0  0  0  0  0  0  0  0
  -32.9636   -1.9335    0.0000 H   0  0  0  0  0  0  0  0  0  0  0  0
  -37.1585   -0.3047    0.0000 H   0  0  0  0  0  0  0  0  0  0  0  0
  -34.5908    0.0919    0.0000 H   0  0  0  0  0  0  0  0  0  0  0  0
  -38.0988   -2.7266    0.0000 H   0  0  0  0  0  0  0  0  0  0  0  0
  -36.4716   -4.7520    0.0000 H   0  0  0  0  0  0  0  0  0  0  0  0
  1  2  1  0
  2  3  1  0
  3  4  2  0
  4  5  1  0
  5  6  2  0
  6  7  1  0
  7  8  2  0
  7  9  1  0
  9 10  1  0
 10 11  1  0
 11 12  2  0
  9 13  1  0
 13 14  1  0
 14 15  2  0
 15 16  1  0
 16 17  2  0
 17 18  1  0
 16 19  1  0
 14 20  1  0
 20 21  1  0
 21 22  2  0
 22 23  1  0
 23 24  2  0
 24 25  1  0
 25 26  2  0
 25 27  1  0
  1 28  2  0
  1 29  1  0
 29 30  1  0
 30 31  1  0
 31 32  1  0
 32 33  2  0
 32 34  1  0
 34 35  1  0
 35 36  1  0
 36 37  1  0
 37 38  1  0
 37 39  1  0
 35 40  1  0
 40 41  2  0
 40 42  1  0
 42 43  1  0
 43 44  1  0
 44 45  1  0
 45 46  1  0
 45 47  1  0
 43 48  1  0
 48 49  2  0
 48 50  1  0
 50 51  1  0
 51 52  1  0
 52 53  1  0
 52 54  1  0
 54 55  1  0
 51 56  1  0
 56 57  2  0
 56 58  1  0
 58 59  1  0
 59 60  1  0
 60 61  1  0
 61 62  1  0
 61 63  1  0
 59 64  1  0
 64 65  2  0
 64 66  1  0
 66 67  1  0
 67 68  1  0
 68 69  1  0
 69 70  1  0
 70 71  1  0
 70 72  2  0
 67 73  1  0
 73 74  2  0
 73 75  1  0
 75 76  1  0
 76 77  1  0
 77 78  1  0
 78 79  1  0
 79 80  1  0
 79 81  2  0
 76 82  1  0
 82 83  2  0
 82 84  1  0
 84 85  1  0
 85 86  1  0
 85 87  1  0
 87 88  2  0
 87 89  1  0
 89 90  1  0
 90 91  1  0
 91 92  1  0
 90 93  1  0
 93 94  2  0
 93 95  1  0
 96 95  1  1
 96 97  1  0
 97 98  1  0
 98 99  1  0
 99100  1  0
 96101  1  0
 96102  1  0
102103  2  0
102104  1  0
104105  1  0
105106  1  0
106107  1  0
105108  1  0
108109  2  0
108110  1  0
110111  1  0
111112  1  0
112113  1  0
112114  1  0
114115  1  0
111116  1  0
116117  2  0
116118  1  0
118119  1  0
119120  1  0
120121  1  0
121122  1  0
121123  1  0
119124  1  0
124125  2  0
124126  1  0
126127  1  0
127128  1  0
128129  1  0
129130  1  0
130131  1  0
127132  1  0
132133  1  0
133134  1  0
134135  1  0
127136  1  0
136137  2  0
136138  1  0
138139  1  0
139140  1  0
140141  1  0
141142  1  0
141143  1  0
139144  1  0
144145  2  0
144146  1  0
146147  1  0
147148  1  0
148149  1  0
149150  1  0
150151  2  0
150152  1  0
147153  1  0
153154  2  0
153155  1  0
155156  1  0
156157  1  0
157158  1  0
158159  1  0
159160  1  0
159161  2  0
156162  1  0
162163  2  0
162164  1  0
164165  1  0
165166  1  0
166167  1  0
167168  1  0
168169  1  0
165170  1  0
165171  1  6
171172  2  0
171173  1  0
173174  1  0
174175  1  0
175176  1  0
174177  1  0
177178  2  0
177179  1  0
179180  1  0
180181  1  0
181182  1  0
182183  1  0
183184  1  0
184185  1  0
185186  2  3
185187  1  0
180188  1  0
188189  2  0
188190  1  0
190191  1  0
191192  1  0
192193  1  0
193194  1  0
194195  2  0
194196  1  0
191197  1  0
197198  2  0
197199  1  0
199200  1  0
200201  1  0
201202  1  0
202203  1  0
203204  1  0
204205  1  0
205206  2  3
205207  1  0
200208  1  0
208209  2  0
208210  1  0
  8  3  1  0
 11  6  1  0
 18 13  2  0
100131  2  0
 22  9  1  0
135169  2  0
 26 21  1  0
  2211  1  0
  4212  1  0
  5213  1  0
  8214  1  0
 15215  1  0
 17216  1  0
 18217  1  0
 19218  1  0
 23219  1  0
 24220  1  0
 26221  1  0
 27222  1  0
 29223  1  0
 30224  1  0
 30225  1  0
 31226  1  0
 31227  1  0
 34228  1  0
 35229  1  1
 36230  1  0
 36231  1  0
 37232  1  0
 38233  1  0
 38234  1  0
 38235  1  0
 39236  1  0
 39237  1  0
 39238  1  0
 42239  1  0
 43240  1  1
 44241  1  0
 44242  1  0
 45243  1  0
 46244  1  0
 46245  1  0
 46246  1  0
 47247  1  0
 47248  1  0
 47249  1  0
 50250  1  0
 51251  1  1
 52252  1  6
 53253  1  0
 53254  1  0
 53255  1  0
 54256  1  0
 54257  1  0
 55258  1  0
 55259  1  0
 55260  1  0
 58261  1  0
 59262  1  1
 60263  1  0
 60264  1  0
 61265  1  0
 62266  1  0
 62267  1  0
 62268  1  0
 63269  1  0
 63270  1  0
 63271  1  0
 66272  1  0
 67273  1  1
 68274  1  0
 68275  1  0
 69276  1  0
 69277  1  0
 71278  1  0
 71279  1  0
 75280  1  0
 76281  1  1
 77282  1  0
 77283  1  0
 78284  1  0
 78285  1  0
 80286  1  0
 80287  1  0
 84288  1  0
 85289  1  1
 86290  1  0
 86291  1  0
 86292  1  0
 89293  1  0
 90294  1  1
 91295  1  0
 91296  1  0
 92297  1  0
 92298  1  0
 92299  1  0
 95300  1  0
 97301  1  0
 97302  1  0
 98303  1  0
 98304  1  0
 99305  1  0
 99306  1  0
100307  1  0
101308  1  0
101309  1  0
101310  1  0
104311  1  0
105312  1  6
106313  1  0
106314  1  0
107315  1  0
107316  1  0
107317  1  0
110318  1  0
111319  1  6
112320  1  1
113321  1  0
113322  1  0
113323  1  0
114324  1  0
114325  1  0
115326  1  0
115327  1  0
115328  1  0
118329  1  0
119330  1  6
120331  1  0
120332  1  0
121333  1  0
122334  1  0
122335  1  0
122336  1  0
123337  1  0
123338  1  0
123339  1  0
126340  1  0
128341  1  0
128342  1  0
129343  1  0
129344  1  0
130345  1  0
130346  1  0
131347  1  0
132348  1  0
132349  1  0
133350  1  0
133351  1  0
134352  1  0
134353  1  0
135354  1  0
138355  1  0
139356  1  6
140357  1  0
140358  1  0
141359  1  0
142360  1  0
142361  1  0
142362  1  0
143363  1  0
143364  1  0
143365  1  0
146366  1  0
147367  1  6
148368  1  0
148369  1  0
149370  1  0
149371  1  0
155372  1  0
156373  1  6
157374  1  0
157375  1  0
158376  1  0
158377  1  0
160378  1  0
160379  1  0
164380  1  0
166381  1  0
166382  1  0
167383  1  0
167384  1  0
168385  1  0
168386  1  0
169387  1  0
170388  1  0
170389  1  0
170390  1  0
173391  1  0
174392  1  1
175393  1  0
175394  1  0
176395  1  0
176396  1  0
176397  1  0
179398  1  0
180399  1  6
181400  1  0
181401  1  0
182402  1  0
182403  1  0
183404  1  0
183405  1  0
184406  1  0
186407  1  0
186408  1  0
187409  1  0
187410  1  0
190411  1  0
191412  1  1
192413  1  0
192414  1  0
193415  1  0
193416  1  0
199417  1  0
200418  1  6
201419  1  0
201420  1  0
202421  1  0
202422  1  0
203423  1  0
203424  1  0
204425  1  0
206426  1  0
206427  1  0
207428  1  0
207429  1  0
M  CHG  5 152  -1 186   1 196  -1 206   1 210  -1
M  END
