
     RDKit          2D

303312  0  0  0  0  0  0  0  0999 V2000
   22.6072   -2.4985    0.0000 C   0  0  0  0  0  0  0  0  0  0  0  0
   23.9333   -1.7974    0.0000 N   0  0  0  0  0  0  0  0  0  0  0  0
   25.2035   -2.5953    0.0000 C   0  0  0  0  0  0  0  0  0  0  0  0
   25.1476   -4.0942    0.0000 C   0  0  0  0  0  0  0  0  0  0  0  0
   26.4179   -4.8921    0.0000 C   0  0  0  0  0  0  0  0  0  0  0  0
   27.7439   -4.1910    0.0000 C   0  0  0  0  0  0  0  0  0  0  0  0
   27.7998   -2.6920    0.0000 C   0  0  0  0  0  0  0  0  0  0  0  0
   26.5296   -1.8942    0.0000 C   0  0  0  0  0  0  0  0  0  0  0  0
   29.2426   -2.2819    0.0000 C   0  0  0  0  0  0  0  0  0  0  0  0
   30.0785   -3.5274    0.0000 O   0  0  0  0  0  0  0  0  0  0  0  0
   29.1523   -4.7073    0.0000 C   0  0  0  0  0  0  0  0  0  0  0  0
   29.5623   -6.1502    0.0000 O   0  0  0  0  0  0  0  0  0  0  0  0
   30.7205   -2.0249    0.0000 C   0  0  0  0  0  0  0  0  0  0  0  0
   31.2368   -0.6166    0.0000 C   0  0  0  0  0  0  0  0  0  0  0  0
   32.7146   -0.3596    0.0000 C   0  0  0  0  0  0  0  0  0  0  0  0
   33.6761   -1.5109    0.0000 C   0  0  0  0  0  0  0  0  0  0  0  0
   33.1598   -2.9192    0.0000 C   0  0  0  0  0  0  0  0  0  0  0  0
   31.6819   -3.1762    0.0000 C   0  0  0  0  0  0  0  0  0  0  0  0
   35.1539   -1.2539    0.0000 O   0  0  0  0  0  0  0  0  0  0  0  0
   30.2753    0.5347    0.0000 O   0  0  0  0  0  0  0  0  0  0  0  0
   28.7975    0.2777    0.0000 C   0  0  0  0  0  0  0  0  0  0  0  0
   28.2811   -1.1306    0.0000 C   0  0  0  0  0  0  0  0  0  0  0  0
   27.0443   -0.7304    0.0000 C   0  0  0  0  0  0  0  0  0  0  0  0
   26.5315   -0.1164    0.0000 C   0  0  0  0  0  0  0  0  0  0  0  0
   26.8069    0.6347    0.0000 C   0  0  0  0  0  0  0  0  0  0  0  0
   27.5950    0.7718    0.0000 C   0  0  0  0  0  0  0  0  0  0  0  0
   25.3967    2.3233    0.0000 O   0  0  0  0  0  0  0  0  0  0  0  0
   22.5514   -3.9975    0.0000 S   0  0  0  0  0  0  0  0  0  0  0  0
   21.3370   -1.7007    0.0000 N   0  0  0  0  0  0  0  0  0  0  0  0
   20.0110   -2.4018    0.0000 C   0  0  0  0  0  0  0  0  0  0  0  0
   18.7407   -1.6039    0.0000 C   0  0  0  0  0  0  0  0  0  0  0  0
   17.4147   -2.3050    0.0000 C   0  0  0  0  0  0  0  0  0  0  0  0
   17.5786   -3.0852    0.0000 O   0  0  0  0  0  0  0  0  0  0  0  0
   16.1445   -1.5072    0.0000 N   0  0  0  0  0  0  0  0  0  0  0  0
   14.8184   -2.2083    0.0000 C   0  0  0  0  0  0  0  0  0  0  0  0
   15.7391   -3.3925    0.0000 C   0  0  0  0  0  0  0  0  0  0  0  0
   17.2250   -3.1872    0.0000 C   0  0  0  0  0  0  0  0  0  0  0  0
   18.1457   -4.3714    0.0000 N   0  0  0  0  0  0  0  0  0  0  0  0
   18.1096   -1.9758    0.0000 O   0  0  0  0  0  0  0  0  0  0  0  0
   13.3325   -2.4136    0.0000 C   0  0  0  0  0  0  0  0  0  0  0  0
   13.1204   -3.8985    0.0000 O   0  0  0  0  0  0  0  0  0  0  0  0
   12.4118   -1.2294    0.0000 N   0  0  0  0  0  0  0  0  0  0  0  0
   10.9259   -1.4347    0.0000 C   0  0  0  0  0  0  0  0  0  0  0  0
   11.3861   -2.8624    0.0000 C   0  0  0  0  0  0  0  0  0  0  0  0
   12.8032   -3.3541    0.0000 C   0  0  0  0  0  0  0  0  0  0  0  0
   11.3302   -4.3613    0.0000 C   0  0  0  0  0  0  0  0  0  0  0  0
   10.0042   -5.0624    0.0000 C   0  0  0  0  0  0  0  0  0  0  0  0
    9.4594   -1.1194    0.0000 C   0  0  0  0  0  0  0  0  0  0  0  0
    8.5962   -2.3461    0.0000 O   0  0  0  0  0  0  0  0  0  0  0  0
    8.9992    0.3083    0.0000 N   0  0  0  0  0  0  0  0  0  0  0  0
    7.5327    0.6236    0.0000 C   0  0  0  0  0  0  0  0  0  0  0  0
    7.4769   -0.8754    0.0000 C   0  0  0  0  0  0  0  0  0  0  0  0
    6.2625    1.4214    0.0000 C   0  0  0  0  0  0  0  0  0  0  0  0
    5.2759    0.2916    0.0000 O   0  0  0  0  0  0  0  0  0  0  0  0
    6.3184    2.9204    0.0000 N   0  0  0  0  0  0  0  0  0  0  0  0
    5.0482    3.7182    0.0000 C   0  0  0  0  0  0  0  0  0  0  0  0
    4.8434    2.2323    0.0000 C   0  0  0  0  0  0  0  0  0  0  0  0
    4.2096    0.8727    0.0000 C   0  0  0  0  0  0  0  0  0  0  0  0
    3.2033   -0.2396    0.0000 C   0  0  0  0  0  0  0  0  0  0  0  0
    1.9139   -1.0060    0.0000 C   0  0  0  0  0  0  0  0  0  0  0  0
    6.2978    4.5479    0.0000 C   0  0  0  0  0  0  0  0  0  0  0  0
    4.8059    5.1985    0.0000 C   0  0  0  0  0  0  0  0  0  0  0  0
    6.2336    5.6587    0.0000 O   0  0  0  0  0  0  0  0  0  0  0  0
    4.1381    6.5417    0.0000 N   0  0  0  0  0  0  0  0  0  0  0  0
    3.1040    7.6283    0.0000 C   0  0  0  0  0  0  0  0  0  0  0  0
    3.2345    9.1226    0.0000 C   0  0  0  0  0  0  0  0  0  0  0  0
    4.5939    9.7567    0.0000 C   0  0  0  0  0  0  0  0  0  0  0  0
    4.8799   11.2292    0.0000 C   0  0  0  0  0  0  0  0  0  0  0  0
    6.3687   11.4122    0.0000 N   0  0  0  0  0  0  0  0  0  0  0  0
    7.0028   10.0529    0.0000 C   0  0  0  0  0  0  0  0  0  0  0  0
    5.9059    9.0297    0.0000 N   0  0  0  0  0  0  0  0  0  0  0  0
    1.7956    8.3618    0.0000 C   0  0  0  0  0  0  0  0  0  0  0  0
    2.3260    9.7649    0.0000 O   0  0  0  0  0  0  0  0  0  0  0  0
    0.3291    8.6771    0.0000 N   0  0  0  0  0  0  0  0  0  0  0  0
   -1.1651    8.5462    0.0000 C   0  0  0  0  0  0  0  0  0  0  0  0
   -2.2521    9.5799    0.0000 C   0  0  0  0  0  0  0  0  0  0  0  0
   -1.9003   11.0381    0.0000 C   0  0  0  0  0  0  0  0  0  0  0  0
   -2.9872   12.0718    0.0000 C   0  0  0  0  0  0  0  0  0  0  0  0
   -1.0710   12.2880    0.0000 C   0  0  0  0  0  0  0  0  0  0  0  0
   -2.5544    7.9806    0.0000 C   0  0  0  0  0  0  0  0  0  0  0  0
   -3.3207    9.2700    0.0000 O   0  0  0  0  0  0  0  0  0  0  0  0
   -3.7153    7.0306    0.0000 N   0  0  0  0  0  0  0  0  0  0  0  0
   -4.5445    5.7807    0.0000 C   0  0  0  0  0  0  0  0  0  0  0  0
   -6.0304    5.5754    0.0000 C   0  0  0  0  0  0  0  0  0  0  0  0
   -4.9685    4.3419    0.0000 C   0  0  0  0  0  0  0  0  0  0  0  0
   -6.2823    5.0657    0.0000 O   0  0  0  0  0  0  0  0  0  0  0  0
   -4.9496    2.8420    0.0000 N   0  0  0  0  0  0  0  0  0  0  0  0
   -4.4894    1.4143    0.0000 C   0  0  0  0  0  0  0  0  0  0  0  0
   -3.6289    0.1857    0.0000 C   0  0  0  0  0  0  0  0  0  0  0  0
   -2.4444   -0.7346    0.0000 C   0  0  0  0  0  0  0  0  0  0  0  0
   -1.0413   -1.2650    0.0000 C   0  0  0  0  0  0  0  0  0  0  0  0
    0.4558   -1.3582    0.0000 C   0  0  0  0  0  0  0  0  0  0  0  0
   -3.9523    0.0138    0.0000 C   0  0  0  0  0  0  0  0  0  0  0  0
   -3.6899   -1.4631    0.0000 C   0  0  0  0  0  0  0  0  0  0  0  0
   -3.7118   -2.9629    0.0000 C   0  0  0  0  0  0  0  0  0  0  0  0
   -4.0171   -4.4315    0.0000 C   0  0  0  0  0  0  0  0  0  0  0  0
   -5.2819    2.6879    0.0000 C   0  0  0  0  0  0  0  0  0  0  0  0
   -4.0894    3.5978    0.0000 O   0  0  0  0  0  0  0  0  0  0  0  0
   -6.3011    3.7885    0.0000 N   0  0  0  0  0  0  0  0  0  0  0  0
   -7.5101    4.6763    0.0000 C   0  0  0  0  0  0  0  0  0  0  0  0
   -7.5359    6.1760    0.0000 C   0  0  0  0  0  0  0  0  0  0  0  0
   -8.7491    7.0581    0.0000 C   0  0  0  0  0  0  0  0  0  0  0  0
   -8.8654    5.3192    0.0000 C   0  0  0  0  0  0  0  0  0  0  0  0
   -8.5298    6.7812    0.0000 O   0  0  0  0  0  0  0  0  0  0  0  0
  -10.3178    5.6941    0.0000 N   0  0  0  0  0  0  0  0  0  0  0  0
  -11.8149    5.7873    0.0000 C   0  0  0  0  0  0  0  0  0  0  0  0
  -13.3025    5.5955    0.0000 C   0  0  0  0  0  0  0  0  0  0  0  0
  -13.6349    7.0582    0.0000 O   0  0  0  0  0  0  0  0  0  0  0  0
  -14.7271    5.1256    0.0000 N   0  0  0  0  0  0  0  0  0  0  0  0
  -16.0369    4.3946    0.0000 C   0  0  0  0  0  0  0  0  0  0  0  0
  -17.4118    4.9942    0.0000 C   0  0  0  0  0  0  0  0  0  0  0  0
  -17.5800    6.4848    0.0000 C   0  0  0  0  0  0  0  0  0  0  0  0
  -18.9549    7.0844    0.0000 O   0  0  0  0  0  0  0  0  0  0  0  0
  -16.3732    7.3757    0.0000 O   0  0  0  0  0  0  0  0  0  0  0  0
  -17.1847    3.4289    0.0000 C   0  0  0  0  0  0  0  0  0  0  0  0
  -18.3752    4.3415    0.0000 O   0  0  0  0  0  0  0  0  0  0  0  0
  -18.1290    2.2635    0.0000 N   0  0  0  0  0  0  0  0  0  0  0  0
  -18.8357    0.9404    0.0000 C   0  0  0  0  0  0  0  0  0  0  0  0
  -20.3166    0.7015    0.0000 C   0  0  0  0  0  0  0  0  0  0  0  0
  -21.2639    1.8645    0.0000 C   0  0  0  0  0  0  0  0  0  0  0  0
  -20.8799    3.3145    0.0000 C   0  0  0  0  0  0  0  0  0  0  0  0
  -22.1402    4.1278    0.0000 N   0  0  0  0  0  0  0  0  0  0  0  0
  -23.3032    3.1805    0.0000 C   0  0  0  0  0  0  0  0  0  0  0  0
  -24.7854    3.4109    0.0000 C   0  0  0  0  0  0  0  0  0  0  0  0
  -25.7260    2.2425    0.0000 C   0  0  0  0  0  0  0  0  0  0  0  0
  -25.1845    0.8437    0.0000 C   0  0  0  0  0  0  0  0  0  0  0  0
  -23.7023    0.6133    0.0000 C   0  0  0  0  0  0  0  0  0  0  0  0
  -22.7616    1.7817    0.0000 C   0  0  0  0  0  0  0  0  0  0  0  0
  -19.2793   -0.4925    0.0000 C   0  0  0  0  0  0  0  0  0  0  0  0
  -20.7741   -0.3685    0.0000 O   0  0  0  0  0  0  0  0  0  0  0  0
  -19.4436   -1.9835    0.0000 N   0  0  0  0  0  0  0  0  0  0  0  0
  -19.3228   -3.4786    0.0000 C   0  0  0  0  0  0  0  0  0  0  0  0
  -20.4394   -4.4802    0.0000 C   0  0  0  0  0  0  0  0  0  0  0  0
  -21.8651   -4.0140    0.0000 C   0  0  0  0  0  0  0  0  0  0  0  0
  -22.9817   -5.0156    0.0000 C   0  0  0  0  0  0  0  0  0  0  0  0
  -24.4074   -4.5494    0.0000 C   0  0  0  0  0  0  0  0  0  0  0  0
  -18.9212   -4.9239    0.0000 C   0  0  0  0  0  0  0  0  0  0  0  0
  -20.2459   -5.6277    0.0000 O   0  0  0  0  0  0  0  0  0  0  0  0
  -18.2534   -6.2670    0.0000 N   0  0  0  0  0  0  0  0  0  0  0  0
  -17.3435   -7.4595    0.0000 C   0  0  0  0  0  0  0  0  0  0  0  0
  -17.7413   -8.9057    0.0000 C   0  0  0  0  0  0  0  0  0  0  0  0
  -19.1927   -9.2843    0.0000 C   0  0  0  0  0  0  0  0  0  0  0  0
  -19.5906  -10.7306    0.0000 O   0  0  0  0  0  0  0  0  0  0  0  0
  -20.2463   -8.2167    0.0000 O   0  0  0  0  0  0  0  0  0  0  0  0
  -16.2243   -8.4582    0.0000 C   0  0  0  0  0  0  0  0  0  0  0  0
  -16.9581   -9.7664    0.0000 O   0  0  0  0  0  0  0  0  0  0  0  0
  -14.9363   -9.2270    0.0000 N   0  0  0  0  0  0  0  0  0  0  0  0
  -13.5261   -9.7383    0.0000 C   0  0  0  0  0  0  0  0  0  0  0  0
  -12.0446   -9.9733    0.0000 C   0  0  0  0  0  0  0  0  0  0  0  0
  -10.5455   -9.9238    0.0000 C   0  0  0  0  0  0  0  0  0  0  0  0
   -9.0827   -9.5915    0.0000 C   0  0  0  0  0  0  0  0  0  0  0  0
   -7.7094   -8.9883    0.0000 C   0  0  0  0  0  0  0  0  0  0  0  0
   -6.4749   -8.1361    0.0000 C   0  0  0  0  0  0  0  0  0  0  0  0
   -5.4241   -7.0657    0.0000 C   0  0  0  0  0  0  0  0  0  0  0  0
   -4.5948   -5.8158    0.0000 C   0  0  0  0  0  0  0  0  0  0  0  0
  -14.6104  -10.7748    0.0000 C   0  0  0  0  0  0  0  0  0  0  0  0
  -13.0789  -11.1700    0.0000 C   0  0  0  0  0  0  0  0  0  0  0  0
  -13.9532  -12.3889    0.0000 O   0  0  0  0  0  0  0  0  0  0  0  0
  -11.7383  -11.8430    0.0000 O   0  0  0  0  0  0  0  0  0  0  0  0
   23.8060   -0.3028    0.0000 H   0  0  0  0  0  0  0  0  0  0  0  0
   23.8216   -4.7953    0.0000 H   0  0  0  0  0  0  0  0  0  0  0  0
   26.3620   -6.3910    0.0000 H   0  0  0  0  0  0  0  0  0  0  0  0
   26.2211   -0.4262    0.0000 H   0  0  0  0  0  0  0  0  0  0  0  0
   33.2309    1.0488    0.0000 H   0  0  0  0  0  0  0  0  0  0  0  0
   34.1213   -4.0705    0.0000 H   0  0  0  0  0  0  0  0  0  0  0  0
   31.1656   -4.5846    0.0000 H   0  0  0  0  0  0  0  0  0  0  0  0
   36.1154   -2.4052    0.0000 H   0  0  0  0  0  0  0  0  0  0  0  0
   26.2870   -2.7960    0.0000 H   0  0  0  0  0  0  0  0  0  0  0  0
   24.3437   -0.3113    0.0000 H   0  0  0  0  0  0  0  0  0  0  0  0
   28.3523    2.8374    0.0000 H   0  0  0  0  0  0  0  0  0  0  0  0
   25.9130    3.7317    0.0000 H   0  0  0  0  0  0  0  0  0  0  0  0
   21.3929   -0.2017    0.0000 H   0  0  0  0  0  0  0  0  0  0  0  0
   20.9317   -3.5860    0.0000 H   0  0  0  0  0  0  0  0  0  0  0  0
   19.1478   -3.6285    0.0000 H   0  0  0  0  0  0  0  0  0  0  0  0
   19.7470   -0.4916    0.0000 H   0  0  0  0  0  0  0  0  0  0  0  0
   17.8200   -0.4198    0.0000 H   0  0  0  0  0  0  0  0  0  0  0  0
   16.2003   -0.0082    0.0000 H   0  0  0  0  0  0  0  0  0  0  0  0
   14.3582   -0.7806    0.0000 H   0  0  0  0  0  0  0  0  0  0  0  0
   16.1993   -4.8201    0.0000 H   0  0  0  0  0  0  0  0  0  0  0  0
   14.4131   -4.0936    0.0000 H   0  0  0  0  0  0  0  0  0  0  0  0
   19.6456   -4.3487    0.0000 H   0  0  0  0  0  0  0  0  0  0  0  0
   17.5806   -5.7608    0.0000 H   0  0  0  0  0  0  0  0  0  0  0  0
   12.9770    0.1600    0.0000 H   0  0  0  0  0  0  0  0  0  0  0  0
   10.9818    0.0643    0.0000 H   0  0  0  0  0  0  0  0  0  0  0  0
    9.8863   -2.8850    0.0000 H   0  0  0  0  0  0  0  0  0  0  0  0
   13.4615   -4.5339    0.0000 H   0  0  0  0  0  0  0  0  0  0  0  0
   14.3385   -2.9724    0.0000 H   0  0  0  0  0  0  0  0  0  0  0  0
   13.3107   -1.7539    0.0000 H   0  0  0  0  0  0  0  0  0  0  0  0
   11.7904   -5.7890    0.0000 H   0  0  0  0  0  0  0  0  0  0  0  0
   12.8216   -4.5217    0.0000 H   0  0  0  0  0  0  0  0  0  0  0  0
    9.9483   -6.5614    0.0000 H   0  0  0  0  0  0  0  0  0  0  0  0
    8.5183   -5.2677    0.0000 H   0  0  0  0  0  0  0  0  0  0  0  0
    9.3734   -3.7015    0.0000 H   0  0  0  0  0  0  0  0  0  0  0  0
   10.0055    1.4206    0.0000 H   0  0  0  0  0  0  0  0  0  0  0  0
    8.0979    2.0130    0.0000 H   0  0  0  0  0  0  0  0  0  0  0  0
    8.6404   -1.8221    0.0000 H   0  0  0  0  0  0  0  0  0  0  0  0
    6.9117   -2.2649    0.0000 H   0  0  0  0  0  0  0  0  0  0  0  0
    6.0104   -0.5601    0.0000 H   0  0  0  0  0  0  0  0  0  0  0  0
    7.7200    3.4546    0.0000 H   0  0  0  0  0  0  0  0  0  0  0  0
    6.3420    2.2960    0.0000 H   0  0  0  0  0  0  0  0  0  0  0  0
    5.6761    0.9847    0.0000 H   0  0  0  0  0  0  0  0  0  0  0  0
    5.5252    0.1521    0.0000 H   0  0  0  0  0  0  0  0  0  0  0  0
    4.9728   -0.4186    0.0000 H   0  0  0  0  0  0  0  0  0  0  0  0
    4.5645   -0.8700    0.0000 H   0  0  0  0  0  0  0  0  0  0  0  0
    3.3715   -1.7302    0.0000 H   0  0  0  0  0  0  0  0  0  0  0  0
    2.4795   -2.3953    0.0000 H   0  0  0  0  0  0  0  0  0  0  0  0
    7.7125    4.0492    0.0000 H   0  0  0  0  0  0  0  0  0  0  0  0
    7.1884    5.7549    0.0000 H   0  0  0  0  0  0  0  0  0  0  0  0
    5.5575    5.8524    0.0000 H   0  0  0  0  0  0  0  0  0  0  0  0
    5.3667    7.4022    0.0000 H   0  0  0  0  0  0  0  0  0  0  0  0
    4.5198    8.1239    0.0000 H   0  0  0  0  0  0  0  0  0  0  0  0
    2.8461   10.5714    0.0000 H   0  0  0  0  0  0  0  0  0  0  0  0
    1.7530    9.3571    0.0000 H   0  0  0  0  0  0  0  0  0  0  0  0
    3.8567   12.3261    0.0000 H   0  0  0  0  0  0  0  0  0  0  0  0
    7.0957   12.7243    0.0000 H   0  0  0  0  0  0  0  0  0  0  0  0
    8.4753    9.7669    0.0000 H   0  0  0  0  0  0  0  0  0  0  0  0
    0.4223   10.1742    0.0000 H   0  0  0  0  0  0  0  0  0  0  0  0
   -0.5010    9.8911    0.0000 H   0  0  0  0  0  0  0  0  0  0  0  0
   -3.6898   10.0074    0.0000 H   0  0  0  0  0  0  0  0  0  0  0  0
   -3.3591    8.5678    0.0000 H   0  0  0  0  0  0  0  0  0  0  0  0
   -0.4625   10.6105    0.0000 H   0  0  0  0  0  0  0  0  0  0  0  0
   -2.8158   13.5619    0.0000 H   0  0  0  0  0  0  0  0  0  0  0  0
   -4.3622   12.6714    0.0000 H   0  0  0  0  0  0  0  0  0  0  0  0
   -3.9627   10.9323    0.0000 H   0  0  0  0  0  0  0  0  0  0  0  0
   -1.5702   13.7025    0.0000 H   0  0  0  0  0  0  0  0  0  0  0  0
    0.1357   13.1789    0.0000 H   0  0  0  0  0  0  0  0  0  0  0  0
    0.0159   11.2543    0.0000 H   0  0  0  0  0  0  0  0  0  0  0  0
   -4.8276    8.0369    0.0000 H   0  0  0  0  0  0  0  0  0  0  0  0
   -5.3428    7.0506    0.0000 H   0  0  0  0  0  0  0  0  0  0  0  0
   -6.8223    6.8626    0.0000 H   0  0  0  0  0  0  0  0  0  0  0  0
   -7.4867    5.2160    0.0000 H   0  0  0  0  0  0  0  0  0  0  0  0
   -6.1126    4.0776    0.0000 H   0  0  0  0  0  0  0  0  0  0  0  0
   -6.4299    2.5997    0.0000 H   0  0  0  0  0  0  0  0  0  0  0  0
   -3.8003   -1.3045    0.0000 H   0  0  0  0  0  0  0  0  0  0  0  0
   -5.1027   -0.0934    0.0000 H   0  0  0  0  0  0  0  0  0  0  0  0
   -2.1690   -2.2091    0.0000 H   0  0  0  0  0  0  0  0  0  0  0  0
   -3.4311   -1.8645    0.0000 H   0  0  0  0  0  0  0  0  0  0  0  0
   -0.5105   -2.6679    0.0000 H   0  0  0  0  0  0  0  0  0  0  0  0
   -1.6511   -2.6354    0.0000 H   0  0  0  0  0  0  0  0  0  0  0  0
    0.5868   -2.8525    0.0000 H   0  0  0  0  0  0  0  0  0  0  0  0
   -2.9359    1.1170    0.0000 H   0  0  0  0  0  0  0  0  0  0  0  0
   -2.5745   -0.5793    0.0000 H   0  0  0  0  0  0  0  0  0  0  0  0
   -2.2440   -1.0639    0.0000 H   0  0  0  0  0  0  0  0  0  0  0  0
   -2.4493   -2.3062    0.0000 H   0  0  0  0  0  0  0  0  0  0  0  0
   -2.2165   -2.8446    0.0000 H   0  0  0  0  0  0  0  0  0  0  0  0
   -2.5315   -3.8887    0.0000 H   0  0  0  0  0  0  0  0  0  0  0  0
   -2.5842   -4.8751    0.0000 H   0  0  0  0  0  0  0  0  0  0  0  0
   -5.4462    5.0210    0.0000 H   0  0  0  0  0  0  0  0  0  0  0  0
   -6.2717    5.5226    0.0000 H   0  0  0  0  0  0  0  0  0  0  0  0
   -7.2236    7.6432    0.0000 H   0  0  0  0  0  0  0  0  0  0  0  0
   -6.0544    5.9409    0.0000 H   0  0  0  0  0  0  0  0  0  0  0  0
   -8.8733    8.4034    0.0000 H   0  0  0  0  0  0  0  0  0  0  0  0
  -10.2626    7.5187    0.0000 H   0  0  0  0  0  0  0  0  0  0  0  0
   -9.6994    5.6743    0.0000 H   0  0  0  0  0  0  0  0  0  0  0  0
  -10.2650    7.1931    0.0000 H   0  0  0  0  0  0  0  0  0  0  0  0
  -12.6474    7.0351    0.0000 H   0  0  0  0  0  0  0  0  0  0  0  0
  -11.2306    7.1688    0.0000 H   0  0  0  0  0  0  0  0  0  0  0  0
  -15.3302    6.4990    0.0000 H   0  0  0  0  0  0  0  0  0  0  0  0
  -16.1102    5.8928    0.0000 H   0  0  0  0  0  0  0  0  0  0  0  0
  -18.8864    5.2692    0.0000 H   0  0  0  0  0  0  0  0  0  0  0  0
  -18.1060    3.6645    0.0000 H   0  0  0  0  0  0  0  0  0  0  0  0
  -19.2686    3.2389    0.0000 H   0  0  0  0  0  0  0  0  0  0  0  0
  -19.7074    2.1611    0.0000 H   0  0  0  0  0  0  0  0  0  0  0  0
  -21.7058    0.1356    0.0000 H   0  0  0  0  0  0  0  0  0  0  0  0
  -20.1816   -0.7924    0.0000 H   0  0  0  0  0  0  0  0  0  0  0  0
  -19.5575    4.0225    0.0000 H   0  0  0  0  0  0  0  0  0  0  0  0
  -22.2230    5.6255    0.0000 H   0  0  0  0  0  0  0  0  0  0  0  0
  -25.3270    4.8097    0.0000 H   0  0  0  0  0  0  0  0  0  0  0  0
  -27.2082    2.4729    0.0000 H   0  0  0  0  0  0  0  0  0  0  0  0
  -26.1251   -0.3248    0.0000 H   0  0  0  0  0  0  0  0  0  0  0  0
  -23.1607   -0.7856    0.0000 H   0  0  0  0  0  0  0  0  0  0  0  0
  -20.9296   -1.7790    0.0000 H   0  0  0  0  0  0  0  0  0  0  0  0
  -20.6380   -2.7572    0.0000 H   0  0  0  0  0  0  0  0  0  0  0  0
  -21.1461   -5.8033    0.0000 H   0  0  0  0  0  0  0  0  0  0  0  0
  -19.5182   -5.6640    0.0000 H   0  0  0  0  0  0  0  0  0  0  0  0
  -22.9238   -2.9513    0.0000 H   0  0  0  0  0  0  0  0  0  0  0  0
  -21.4996   -2.5592    0.0000 H   0  0  0  0  0  0  0  0  0  0  0  0
  -23.6884   -6.3387    0.0000 H   0  0  0  0  0  0  0  0  0  0  0  0
  -21.9231   -6.0783    0.0000 H   0  0  0  0  0  0  0  0  0  0  0  0
  -25.5241   -5.5510    0.0000 H   0  0  0  0  0  0  0  0  0  0  0  0
  -25.5877   -3.6237    0.0000 H   0  0  0  0  0  0  0  0  0  0  0  0
  -23.8673   -3.1500    0.0000 H   0  0  0  0  0  0  0  0  0  0  0  0
  -19.5270   -7.0595    0.0000 H   0  0  0  0  0  0  0  0  0  0  0  0
  -18.8160   -7.7452    0.0000 H   0  0  0  0  0  0  0  0  0  0  0  0
  -17.8037  -10.4044    0.0000 H   0  0  0  0  0  0  0  0  0  0  0  0
  -16.3263   -9.4036    0.0000 H   0  0  0  0  0  0  0  0  0  0  0  0
  -15.7397  -10.4938    0.0000 H   0  0  0  0  0  0  0  0  0  0  0  0
  -11.3345  -11.2946    0.0000 H   0  0  0  0  0  0  0  0  0  0  0  0
  -12.5914  -11.3701    0.0000 H   0  0  0  0  0  0  0  0  0  0  0  0
   -9.7470  -11.1936    0.0000 H   0  0  0  0  0  0  0  0  0  0  0  0
  -10.8180  -11.3989    0.0000 H   0  0  0  0  0  0  0  0  0  0  0  0
   -8.0584  -10.6872    0.0000 H   0  0  0  0  0  0  0  0  0  0  0  0
   -9.2541  -11.0816    0.0000 H   0  0  0  0  0  0  0  0  0  0  0  0
   -6.4961   -9.8704    0.0000 H   0  0  0  0  0  0  0  0  0  0  0  0
   -7.5956  -10.4840    0.0000 H   0  0  0  0  0  0  0  0  0  0  0  0
   -5.1167   -8.7727    0.0000 H   0  0  0  0  0  0  0  0  0  0  0  0
   -6.0802   -9.5833    0.0000 H   0  0  0  0  0  0  0  0  0  0  0  0
   -3.9359   -7.2537    0.0000 H   0  0  0  0  0  0  0  0  0  0  0  0
   -4.7626   -8.4120    0.0000 H   0  0  0  0  0  0  0  0  0  0  0  0
   -3.2717   -6.5225    0.0000 H   0  0  0  0  0  0  0  0  0  0  0  0
  -14.4351  -12.2645    0.0000 H   0  0  0  0  0  0  0  0  0  0  0  0
  -15.9000  -11.5408    0.0000 H   0  0  0  0  0  0  0  0  0  0  0  0
  -15.7201   -9.7655    0.0000 H   0  0  0  0  0  0  0  0  0  0  0  0
  1  2  1  0
  2  3  1  0
  3  4  2  0
  4  5  1  0
  5  6  2  0
  6  7  1  0
  7  8  2  0
  7  9  1  0
  9 10  1  0
 10 11  1  0
 11 12  2  0
  9 13  1  0
 13 14  1  0
 14 15  2  0
 15 16  1  0
 16 17  2  0
 17 18  1  0
 16 19  1  0
 14 20  1  0
 20 21  1  0
 21 22  2  0
 22 23  1  0
 23 24  2  0
 24 25  1  0
 25 26  2  0
 25 27  1  0
  1 28  2  0
  1 29  1  0
 29 30  1  0
 30 31  1  0
 31 32  1  0
 32 33  2  0
 32 34  1  0
 34 35  1  0
 35 36  1  0
 36 37  1  0
 37 38  1  0
 37 39  2  0
 35 40  1  0
 40 41  2  0
 40 42  1  0
 42 43  1  0
 43 44  1  0
 44 45  1  0
 44 46  1  0
 46 47  1  0
 43 48  1  0
 48 49  2  0
 48 50  1  0
 50 51  1  0
 51 52  1  0
 51 53  1  0
 53 54  2  0
 53 55  1  0
 56 55  1  1
 56 57  1  0
 57 58  1  0
 58 59  1  0
 59 60  1  0
 56 61  1  0
 56 62  1  0
 62 63  2  0
 62 64  1  0
 64 65  1  0
 65 66  1  0
 66 67  1  0
 67 68  2  0
 68 69  1  0
 69 70  1  0
 70 71  2  0
 65 72  1  0
 72 73  2  0
 72 74  1  0
 74 75  1  0
 75 76  1  0
 76 77  1  0
 77 78  1  0
 77 79  1  0
 75 80  1  0
 80 81  2  0
 80 82  1  0
 82 83  1  0
 83 84  1  0
 83 85  1  0
 85 86  2  0
 85 87  1  0
 87 88  1  0
 88 89  1  0
 89 90  1  0
 90 91  1  0
 91 92  1  0
 88 93  1  0
 93 94  1  0
 94 95  1  0
 95 96  1  0
 88 97  1  0
 97 98  2  0
 97 99  1  0
 99100  1  0
100101  1  0
101102  1  0
100103  1  0
103104  2  0
103105  1  0
105106  1  0
106107  1  0
107108  2  0
107109  1  0
109110  1  0
110111  1  0
111112  1  0
112113  2  0
112114  1  0
110115  1  0
115116  2  0
115117  1  0
117118  1  0
118119  1  0
119120  1  0
120121  2  0
121122  1  0
122123  1  0
123124  2  0
124125  1  0
125126  2  0
126127  1  0
127128  2  0
118129  1  0
129130  2  0
129131  1  0
131132  1  0
132133  1  0
133134  1  0
134135  1  0
135136  1  0
132137  1  0
137138  2  0
137139  1  0
139140  1  0
140141  1  0
141142  1  0
142143  2  0
142144  1  0
140145  1  0
145146  2  0
145147  1  0
147148  1  0
148149  1  0
149150  1  0
150151  1  0
151152  1  0
152153  1  0
153154  1  0
154155  1  0
148156  1  0
148157  1  1
157158  2  0
157159  1  0
  8  3  1  0
 71 67  1  0
128120  1  0
 11  6  1  0
128123  1  0
 18 13  2  0
 60 92  2  0
 22  9  1  0
 96155  2  0
 26 21  1  0
  2160  1  0
  4161  1  0
  5162  1  0
  8163  1  0
 15164  1  0
 17165  1  0
 18166  1  0
 19167  1  0
 23168  1  0
 24169  1  0
 26170  1  0
 27171  1  0
 29172  1  0
 30173  1  0
 30174  1  0
 31175  1  0
 31176  1  0
 34177  1  0
 35178  1  1
 36179  1  0
 36180  1  0
 38181  1  0
 38182  1  0
 42183  1  0
 43184  1  1
 44185  1  6
 45186  1  0
 45187  1  0
 45188  1  0
 46189  1  0
 46190  1  0
 47191  1  0
 47192  1  0
 47193  1  0
 50194  1  0
 51195  1  1
 52196  1  0
 52197  1  0
 52198  1  0
 55199  1  0
 57200  1  0
 57201  1  0
 58202  1  0
 58203  1  0
 59204  1  0
 59205  1  0
 60206  1  0
 61207  1  0
 61208  1  0
 61209  1  0
 64210  1  0
 65211  1  6
 66212  1  0
 66213  1  0
 68214  1  0
 69215  1  0
 70216  1  0
 74217  1  0
 75218  1  6
 76219  1  0
 76220  1  0
 77221  1  0
 78222  1  0
 78223  1  0
 78224  1  0
 79225  1  0
 79226  1  0
 79227  1  0
 82228  1  0
 83229  1  6
 84230  1  0
 84231  1  0
 84232  1  0
 87233  1  0
 89234  1  0
 89235  1  0
 90236  1  0
 90237  1  0
 91238  1  0
 91239  1  0
 92240  1  0
 93241  1  0
 93242  1  0
 94243  1  0
 94244  1  0
 95245  1  0
 95246  1  0
 96247  1  0
 99248  1  0
100249  1  6
101250  1  0
101251  1  0
102252  1  0
102253  1  0
102254  1  0
105255  1  0
106256  1  0
106257  1  0
109258  1  0
110259  1  6
111260  1  0
111261  1  0
117262  1  0
118263  1  6
119264  1  0
119265  1  0
121266  1  0
122267  1  0
124268  1  0
125269  1  0
126270  1  0
127271  1  0
131272  1  0
132273  1  1
133274  1  0
133275  1  0
134276  1  0
134277  1  0
135278  1  0
135279  1  0
136280  1  0
136281  1  0
136282  1  0
139283  1  0
140284  1  6
141285  1  0
141286  1  0
147287  1  0
149288  1  0
149289  1  0
150290  1  0
150291  1  0
151292  1  0
151293  1  0
152294  1  0
152295  1  0
153296  1  0
153297  1  0
154298  1  0
154299  1  0
155300  1  0
156301  1  0
156302  1  0
156303  1  0
M  CHG  3 114  -1 144  -1 159  -1
M  END
