
     RDKit          2D

436442  0  0  0  0  0  0  0  0999 V2000
   16.7198  -14.5754    0.0000 C   0  0  0  0  0  0  0  0  0  0  0  0
   17.3124  -15.9534    0.0000 N   0  0  0  0  0  0  0  0  0  0  0  0
   16.4153  -17.1555    0.0000 C   0  0  0  0  0  0  0  0  0  0  0  0
   14.9256  -16.9797    0.0000 C   0  0  0  0  0  0  0  0  0  0  0  0
   14.0285  -18.1819    0.0000 C   0  0  0  0  0  0  0  0  0  0  0  0
   14.6211  -19.5599    0.0000 C   0  0  0  0  0  0  0  0  0  0  0  0
   16.1107  -19.7357    0.0000 C   0  0  0  0  0  0  0  0  0  0  0  0
   17.0078  -18.5335    0.0000 C   0  0  0  0  0  0  0  0  0  0  0  0
   16.4038  -21.2068    0.0000 C   0  0  0  0  0  0  0  0  0  0  0  0
   15.0953  -21.9402    0.0000 O   0  0  0  0  0  0  0  0  0  0  0  0
   13.9935  -20.9223    0.0000 C   0  0  0  0  0  0  0  0  0  0  0  0
   12.5224  -21.2154    0.0000 O   0  0  0  0  0  0  0  0  0  0  0  0
   16.5416  -22.7005    0.0000 C   0  0  0  0  0  0  0  0  0  0  0  0
   17.9040  -23.3280    0.0000 C   0  0  0  0  0  0  0  0  0  0  0  0
   18.0417  -24.8217    0.0000 C   0  0  0  0  0  0  0  0  0  0  0  0
   16.8171  -25.6878    0.0000 C   0  0  0  0  0  0  0  0  0  0  0  0
   15.4546  -25.0602    0.0000 C   0  0  0  0  0  0  0  0  0  0  0  0
   15.3169  -23.5666    0.0000 C   0  0  0  0  0  0  0  0  0  0  0  0
   16.9548  -27.1814    0.0000 O   0  0  0  0  0  0  0  0  0  0  0  0
   19.1287  -22.4619    0.0000 O   0  0  0  0  0  0  0  0  0  0  0  0
   18.9909  -20.9682    0.0000 C   0  0  0  0  0  0  0  0  0  0  0  0
   17.6285  -20.3407    0.0000 C   0  0  0  0  0  0  0  0  0  0  0  0
   18.1266  -19.1399    0.0000 C   0  0  0  0  0  0  0  0  0  0  0  0
   18.7797  -18.6779    0.0000 C   0  0  0  0  0  0  0  0  0  0  0  0
   19.5064  -19.0126    0.0000 C   0  0  0  0  0  0  0  0  0  0  0  0
   19.5798  -19.8093    0.0000 C   0  0  0  0  0  0  0  0  0  0  0  0
   21.3026  -17.7423    0.0000 O   0  0  0  0  0  0  0  0  0  0  0  0
   15.2301  -14.3996    0.0000 S   0  0  0  0  0  0  0  0  0  0  0  0
   17.6169  -13.3732    0.0000 N   0  0  0  0  0  0  0  0  0  0  0  0
   17.0243  -11.9952    0.0000 C   0  0  0  0  0  0  0  0  0  0  0  0
   17.9214  -10.7930    0.0000 C   0  0  0  0  0  0  0  0  0  0  0  0
   17.3289   -9.4150    0.0000 C   0  0  0  0  0  0  0  0  0  0  0  0
   16.5381   -9.5160    0.0000 O   0  0  0  0  0  0  0  0  0  0  0  0
   18.2260   -8.2129    0.0000 N   0  0  0  0  0  0  0  0  0  0  0  0
   17.6334   -6.8349    0.0000 C   0  0  0  0  0  0  0  0  0  0  0  0
   16.3792   -7.6577    0.0000 C   0  0  0  0  0  0  0  0  0  0  0  0
   16.4648   -9.1553    0.0000 C   0  0  0  0  0  0  0  0  0  0  0  0
   15.2106   -9.9781    0.0000 C   0  0  0  0  0  0  0  0  0  0  0  0
   17.0573  -10.5333    0.0000 C   0  0  0  0  0  0  0  0  0  0  0  0
   17.5479   -5.3373    0.0000 C   0  0  0  0  0  0  0  0  0  0  0  0
   16.0554   -5.1876    0.0000 O   0  0  0  0  0  0  0  0  0  0  0  0
   18.8020   -4.5145    0.0000 N   0  0  0  0  0  0  0  0  0  0  0  0
   18.7165   -3.0169    0.0000 C   0  0  0  0  0  0  0  0  0  0  0  0
   17.3866   -3.7108    0.0000 C   0  0  0  0  0  0  0  0  0  0  0  0
   15.9113   -3.9819    0.0000 C   0  0  0  0  0  0  0  0  0  0  0  0
   14.4217   -3.8061    0.0000 C   0  0  0  0  0  0  0  0  0  0  0  0
   13.0500   -3.1990    0.0000 C   0  0  0  0  0  0  0  0  0  0  0  0
   20.1167   -3.5549    0.0000 C   0  0  0  0  0  0  0  0  0  0  0  0
   19.7828   -1.9619    0.0000 C   0  0  0  0  0  0  0  0  0  0  0  0
   20.9849   -2.8590    0.0000 O   0  0  0  0  0  0  0  0  0  0  0  0
   20.4907   -0.6394    0.0000 N   0  0  0  0  0  0  0  0  0  0  0  0
   20.7773    0.8329    0.0000 C   0  0  0  0  0  0  0  0  0  0  0  0
   22.0709    1.5922    0.0000 C   0  0  0  0  0  0  0  0  0  0  0  0
   23.2753    0.6981    0.0000 C   0  0  0  0  0  0  0  0  0  0  0  0
   23.0268    2.7482    0.0000 C   0  0  0  0  0  0  0  0  0  0  0  0
   24.5059    2.4983    0.0000 C   0  0  0  0  0  0  0  0  0  0  0  0
   20.6172    2.3244    0.0000 C   0  0  0  0  0  0  0  0  0  0  0  0
   22.0110    2.8790    0.0000 O   0  0  0  0  0  0  0  0  0  0  0  0
   20.0247    3.7024    0.0000 N   0  0  0  0  0  0  0  0  0  0  0  0
   19.0523    4.8445    0.0000 C   0  0  0  0  0  0  0  0  0  0  0  0
   19.2652    6.3293    0.0000 C   0  0  0  0  0  0  0  0  0  0  0  0
   20.6575    6.8873    0.0000 C   0  0  0  0  0  0  0  0  0  0  0  0
   20.8704    8.3721    0.0000 C   0  0  0  0  0  0  0  0  0  0  0  0
   22.1567    6.9355    0.0000 C   0  0  0  0  0  0  0  0  0  0  0  0
   17.7864    5.6492    0.0000 C   0  0  0  0  0  0  0  0  0  0  0  0
   18.3935    7.0209    0.0000 O   0  0  0  0  0  0  0  0  0  0  0  0
   16.3396    6.0451    0.0000 N   0  0  0  0  0  0  0  0  0  0  0  0
   14.8404    5.9969    0.0000 C   0  0  0  0  0  0  0  0  0  0  0  0
   13.8123    7.0892    0.0000 C   0  0  0  0  0  0  0  0  0  0  0  0
   14.2441    8.5257    0.0000 C   0  0  0  0  0  0  0  0  0  0  0  0
   13.2160    9.6179    0.0000 C   0  0  0  0  0  0  0  0  0  0  0  0
   13.6478   11.0544    0.0000 N   0  0  0  0  0  0  0  0  0  0  0  0
   11.7161    9.6371    0.0000 O   0  0  0  0  0  0  0  0  0  0  0  0
   13.4220    5.5090    0.0000 C   0  0  0  0  0  0  0  0  0  0  0  0
   13.2509    6.9992    0.0000 O   0  0  0  0  0  0  0  0  0  0  0  0
   12.2104    4.6247    0.0000 N   0  0  0  0  0  0  0  0  0  0  0  0
   11.3133    3.4225    0.0000 C   0  0  0  0  0  0  0  0  0  0  0  0
   10.8104    2.0093    0.0000 C   0  0  0  0  0  0  0  0  0  0  0  0
   10.7464    0.5107    0.0000 C   0  0  0  0  0  0  0  0  0  0  0  0
   11.1269   -0.9402    0.0000 C   0  0  0  0  0  0  0  0  0  0  0  0
   11.9183   -2.2145    0.0000 C   0  0  0  0  0  0  0  0  0  0  0  0
   10.4829    2.1733    0.0000 C   0  0  0  0  0  0  0  0  0  0  0  0
    9.4311    1.1039    0.0000 C   0  0  0  0  0  0  0  0  0  0  0  0
    8.1959    0.2528    0.0000 C   0  0  0  0  0  0  0  0  0  0  0  0
    6.8219   -0.3491    0.0000 C   0  0  0  0  0  0  0  0  0  0  0  0
   11.8923    4.8063    0.0000 C   0  0  0  0  0  0  0  0  0  0  0  0
   13.3248    4.3614    0.0000 O   0  0  0  0  0  0  0  0  0  0  0  0
   12.1989    6.2746    0.0000 N   0  0  0  0  0  0  0  0  0  0  0  0
   12.2221    7.7744    0.0000 C   0  0  0  0  0  0  0  0  0  0  0  0
   13.4297    8.6642    0.0000 C   0  0  0  0  0  0  0  0  0  0  0  0
   11.9611    9.2515    0.0000 C   0  0  0  0  0  0  0  0  0  0  0  0
   13.1672   10.1433    0.0000 O   0  0  0  0  0  0  0  0  0  0  0  0
   11.4252   10.6525    0.0000 N   0  0  0  0  0  0  0  0  0  0  0  0
   10.6339   11.9268    0.0000 C   0  0  0  0  0  0  0  0  0  0  0  0
   11.1687   13.3282    0.0000 C   0  0  0  0  0  0  0  0  0  0  0  0
   12.6498   13.5658    0.0000 C   0  0  0  0  0  0  0  0  0  0  0  0
    9.6157   13.0283    0.0000 C   0  0  0  0  0  0  0  0  0  0  0  0
   10.4717   14.2601    0.0000 O   0  0  0  0  0  0  0  0  0  0  0  0
    8.4075   13.9172    0.0000 N   0  0  0  0  0  0  0  0  0  0  0  0
    7.0529   14.5614    0.0000 C   0  0  0  0  0  0  0  0  0  0  0  0
    6.7451   16.0295    0.0000 C   0  0  0  0  0  0  0  0  0  0  0  0
    7.8626   17.0301    0.0000 C   0  0  0  0  0  0  0  0  0  0  0  0
    7.5548   18.4981    0.0000 C   0  0  0  0  0  0  0  0  0  0  0  0
    8.6723   19.4987    0.0000 N   0  0  0  0  0  0  0  0  0  0  0  0
    6.1295   18.9656    0.0000 O   0  0  0  0  0  0  0  0  0  0  0  0
    5.6008   14.9376    0.0000 C   0  0  0  0  0  0  0  0  0  0  0  0
    5.6549   16.4366    0.0000 O   0  0  0  0  0  0  0  0  0  0  0  0
    4.1038   15.0321    0.0000 N   0  0  0  0  0  0  0  0  0  0  0  0
    2.6159   14.8417    0.0000 C   0  0  0  0  0  0  0  0  0  0  0  0
    1.5633   15.9103    0.0000 C   0  0  0  0  0  0  0  0  0  0  0  0
    1.9625   17.3562    0.0000 C   0  0  0  0  0  0  0  0  0  0  0  0
    1.1910   14.3731    0.0000 C   0  0  0  0  0  0  0  0  0  0  0  0
    0.4261   15.6634    0.0000 O   0  0  0  0  0  0  0  0  0  0  0  0
   -0.1195   13.6433    0.0000 N   0  0  0  0  0  0  0  0  0  0  0  0
   -1.2682   12.6787    0.0000 C   0  0  0  0  0  0  0  0  0  0  0  0
   -2.7315   13.0086    0.0000 C   0  0  0  0  0  0  0  0  0  0  0  0
   -2.9995   14.4844    0.0000 C   0  0  0  0  0  0  0  0  0  0  0  0
   -4.2193   12.8181    0.0000 C   0  0  0  0  0  0  0  0  0  0  0  0
   -5.1282   14.0114    0.0000 C   0  0  0  0  0  0  0  0  0  0  0  0
   -2.2136   11.5141    0.0000 C   0  0  0  0  0  0  0  0  0  0  0  0
   -3.4628   12.3445    0.0000 O   0  0  0  0  0  0  0  0  0  0  0  0
   -2.9215   10.1916    0.0000 N   0  0  0  0  0  0  0  0  0  0  0  0
   -3.3663    8.7591    0.0000 C   0  0  0  0  0  0  0  0  0  0  0  0
   -4.7757    8.2455    0.0000 C   0  0  0  0  0  0  0  0  0  0  0  0
   -5.9251    9.2093    0.0000 C   0  0  0  0  0  0  0  0  0  0  0  0
   -7.3345    8.6957    0.0000 C   0  0  0  0  0  0  0  0  0  0  0  0
   -6.6756   10.5080    0.0000 C   0  0  0  0  0  0  0  0  0  0  0  0
   -3.5320    7.2683    0.0000 C   0  0  0  0  0  0  0  0  0  0  0  0
   -5.0235    7.1085    0.0000 O   0  0  0  0  0  0  0  0  0  0  0  0
   -3.4126    5.7730    0.0000 N   0  0  0  0  0  0  0  0  0  0  0  0
   -3.0123    4.3274    0.0000 C   0  0  0  0  0  0  0  0  0  0  0  0
   -2.3457    2.9837    0.0000 C   0  0  0  0  0  0  0  0  0  0  0  0
   -1.4368    1.7904    0.0000 C   0  0  0  0  0  0  0  0  0  0  0  0
   -0.3186    0.7907    0.0000 C   0  0  0  0  0  0  0  0  0  0  0  0
    0.9687    0.0206    0.0000 C   0  0  0  0  0  0  0  0  0  0  0  0
    2.3784   -0.4918    0.0000 C   0  0  0  0  0  0  0  0  0  0  0  0
    3.8597   -0.7283    0.0000 C   0  0  0  0  0  0  0  0  0  0  0  0
    5.3589   -0.6801    0.0000 C   0  0  0  0  0  0  0  0  0  0  0  0
   -4.4853    4.6107    0.0000 C   0  0  0  0  0  0  0  0  0  0  0  0
   -3.9203    3.1334    0.0000 C   0  0  0  0  0  0  0  0  0  0  0  0
   -3.6922    1.6509    0.0000 O   0  0  0  0  0  0  0  0  0  0  0  0
   -5.4083    3.3228    0.0000 N   0  0  0  0  0  0  0  0  0  0  0  0
   -6.3162    2.1288    0.0000 C   0  0  0  0  0  0  0  0  0  0  0  0
   -6.7611    0.6963    0.0000 C   0  0  0  0  0  0  0  0  0  0  0  0
   -8.2241    0.3652    0.0000 C   0  0  0  0  0  0  0  0  0  0  0  0
   -8.6689   -1.0673    0.0000 C   0  0  0  0  0  0  0  0  0  0  0  0
   -9.7121    0.5546    0.0000 C   0  0  0  0  0  0  0  0  0  0  0  0
   -7.8042    2.3181    0.0000 C   0  0  0  0  0  0  0  0  0  0  0  0
   -8.3843    3.7014    0.0000 O   0  0  0  0  0  0  0  0  0  0  0  0
   -8.7122    1.1241    0.0000 N   0  0  0  0  0  0  0  0  0  0  0  0
  -10.2002    1.3134    0.0000 C   0  0  0  0  0  0  0  0  0  0  0  0
  -11.5337    2.0003    0.0000 C   0  0  0  0  0  0  0  0  0  0  0  0
  -11.6057    3.4985    0.0000 C   0  0  0  0  0  0  0  0  0  0  0  0
  -12.9392    4.1854    0.0000 C   0  0  0  0  0  0  0  0  0  0  0  0
  -13.0111    5.6836    0.0000 O   0  0  0  0  0  0  0  0  0  0  0  0
  -14.2008    3.3739    0.0000 O   0  0  0  0  0  0  0  0  0  0  0  0
  -11.1082    0.1194    0.0000 C   0  0  0  0  0  0  0  0  0  0  0  0
  -10.7011   -1.3243    0.0000 O   0  0  0  0  0  0  0  0  0  0  0  0
  -12.5962    0.3088    0.0000 N   0  0  0  0  0  0  0  0  0  0  0  0
  -13.5041   -0.8852    0.0000 C   0  0  0  0  0  0  0  0  0  0  0  0
  -13.9490   -2.3177    0.0000 C   0  0  0  0  0  0  0  0  0  0  0  0
  -15.4120   -2.6488    0.0000 C   0  0  0  0  0  0  0  0  0  0  0  0
  -15.8568   -4.0813    0.0000 C   0  0  0  0  0  0  0  0  0  0  0  0
  -17.2686   -4.5882    0.0000 N   0  0  0  0  0  0  0  0  0  0  0  0
  -14.8386   -5.1828    0.0000 O   0  0  0  0  0  0  0  0  0  0  0  0
  -14.9921   -0.6959    0.0000 C   0  0  0  0  0  0  0  0  0  0  0  0
  -15.5722    0.6874    0.0000 O   0  0  0  0  0  0  0  0  0  0  0  0
  -15.9001   -1.8899    0.0000 N   0  0  0  0  0  0  0  0  0  0  0  0
  -17.3881   -1.7006    0.0000 C   0  0  0  0  0  0  0  0  0  0  0  0
  -18.7216   -1.0137    0.0000 C   0  0  0  0  0  0  0  0  0  0  0  0
  -18.7936    0.4845    0.0000 C   0  0  0  0  0  0  0  0  0  0  0  0
  -20.1271    1.1714    0.0000 C   0  0  0  0  0  0  0  0  0  0  0  0
  -20.1990    2.6696    0.0000 N   0  0  0  0  0  0  0  0  0  0  0  0
  -21.3886    0.3599    0.0000 O   0  0  0  0  0  0  0  0  0  0  0  0
  -18.2961   -2.8946    0.0000 C   0  0  0  0  0  0  0  0  0  0  0  0
  -17.8890   -4.3383    0.0000 O   0  0  0  0  0  0  0  0  0  0  0  0
  -19.7841   -2.7052    0.0000 N   0  0  0  0  0  0  0  0  0  0  0  0
  -20.6920   -3.8992    0.0000 C   0  0  0  0  0  0  0  0  0  0  0  0
  -21.1369   -5.3318    0.0000 C   0  0  0  0  0  0  0  0  0  0  0  0
  -22.5486   -5.8386    0.0000 C   0  0  0  0  0  0  0  0  0  0  0  0
  -22.1800   -3.7099    0.0000 C   0  0  0  0  0  0  0  0  0  0  0  0
  -22.7601   -2.3266    0.0000 O   0  0  0  0  0  0  0  0  0  0  0  0
  -23.0880   -4.9039    0.0000 N   0  0  0  0  0  0  0  0  0  0  0  0
  -24.5760   -4.7146    0.0000 C   0  0  0  0  0  0  0  0  0  0  0  0
  -25.9095   -4.0277    0.0000 C   0  0  0  0  0  0  0  0  0  0  0  0
  -25.9814   -2.5295    0.0000 C   0  0  0  0  0  0  0  0  0  0  0  0
  -27.3150   -1.8426    0.0000 C   0  0  0  0  0  0  0  0  0  0  0  0
  -27.3869   -0.3444    0.0000 N   0  0  0  0  0  0  0  0  0  0  0  0
  -28.7204    0.3425    0.0000 C   0  0  0  0  0  0  0  0  0  0  0  0
  -28.7924    1.8407    0.0000 N   0  0  0  0  0  0  0  0  0  0  0  0
  -29.9820   -0.4690    0.0000 N   0  0  0  0  0  0  0  0  0  0  0  0
  -25.4839   -5.9086    0.0000 C   0  0  0  0  0  0  0  0  0  0  0  0
  -24.9039   -7.2919    0.0000 O   0  0  0  0  0  0  0  0  0  0  0  0
  -26.9720   -5.7192    0.0000 N   0  0  0  0  0  0  0  0  0  0  0  0
  -27.8799   -6.9132    0.0000 C   0  0  0  0  0  0  0  0  0  0  0  0
  -28.3247   -8.3458    0.0000 C   0  0  0  0  0  0  0  0  0  0  0  0
  -29.7878   -8.6768    0.0000 C   0  0  0  0  0  0  0  0  0  0  0  0
  -30.2326  -10.1093    0.0000 C   0  0  0  0  0  0  0  0  0  0  0  0
  -31.6444  -10.6162    0.0000 O   0  0  0  0  0  0  0  0  0  0  0  0
  -29.2144  -11.2108    0.0000 O   0  0  0  0  0  0  0  0  0  0  0  0
  -29.3679   -6.7239    0.0000 C   0  0  0  0  0  0  0  0  0  0  0  0
  -29.9480   -5.3406    0.0000 O   0  0  0  0  0  0  0  0  0  0  0  0
  -30.2759   -7.9179    0.0000 N   0  0  0  0  0  0  0  0  0  0  0  0
  -31.7639   -7.7286    0.0000 C   0  0  0  0  0  0  0  0  0  0  0  0
  -33.0974   -7.0417    0.0000 C   0  0  0  0  0  0  0  0  0  0  0  0
  -33.1693   -5.5435    0.0000 C   0  0  0  0  0  0  0  0  0  0  0  0
  -34.5029   -4.8566    0.0000 C   0  0  0  0  0  0  0  0  0  0  0  0
  -34.5748   -3.3584    0.0000 N   0  0  0  0  0  0  0  0  0  0  0  0
  -35.9083   -2.6715    0.0000 C   0  0  0  0  0  0  0  0  0  0  0  0
  -35.9803   -1.1733    0.0000 N   0  0  0  0  0  0  0  0  0  0  0  0
  -37.1699   -3.4830    0.0000 N   0  0  0  0  0  0  0  0  0  0  0  0
  -32.6718   -8.9226    0.0000 C   0  0  0  0  0  0  0  0  0  0  0  0
  -34.1718   -8.9160    0.0000 O   0  0  0  0  0  0  0  0  0  0  0  0
  -32.2647  -10.3663    0.0000 O   0  0  0  0  0  0  0  0  0  0  0  0
   18.8123  -15.9463    0.0000 H   0  0  0  0  0  0  0  0  0  0  0  0
   14.3330  -15.6017    0.0000 H   0  0  0  0  0  0  0  0  0  0  0  0
   12.5388  -18.0061    0.0000 H   0  0  0  0  0  0  0  0  0  0  0  0
   18.4958  -18.3437    0.0000 H   0  0  0  0  0  0  0  0  0  0  0  0
   19.4041  -25.4492    0.0000 H   0  0  0  0  0  0  0  0  0  0  0  0
   14.2300  -25.9264    0.0000 H   0  0  0  0  0  0  0  0  0  0  0  0
   13.9545  -22.9390    0.0000 H   0  0  0  0  0  0  0  0  0  0  0  0
   15.7301  -28.0476    0.0000 H   0  0  0  0  0  0  0  0  0  0  0  0
   16.1284  -18.2195    0.0000 H   0  0  0  0  0  0  0  0  0  0  0  0
   18.7608  -16.4816    0.0000 H   0  0  0  0  0  0  0  0  0  0  0  0
   21.5780  -20.7297    0.0000 H   0  0  0  0  0  0  0  0  0  0  0  0
   22.6650  -18.3699    0.0000 H   0  0  0  0  0  0  0  0  0  0  0  0
   19.1065  -13.5490    0.0000 H   0  0  0  0  0  0  0  0  0  0  0  0
   15.7702  -12.8181    0.0000 H   0  0  0  0  0  0  0  0  0  0  0  0
   15.7625  -11.1842    0.0000 H   0  0  0  0  0  0  0  0  0  0  0  0
   19.0750  -11.7518    0.0000 H   0  0  0  0  0  0  0  0  0  0  0  0
   19.2665  -10.1292    0.0000 H   0  0  0  0  0  0  0  0  0  0  0  0
   19.7156   -8.3887    0.0000 H   0  0  0  0  0  0  0  0  0  0  0  0
   19.0934   -6.4906    0.0000 H   0  0  0  0  0  0  0  0  0  0  0  0
   14.8882   -7.8215    0.0000 H   0  0  0  0  0  0  0  0  0  0  0  0
   15.7867   -6.2797    0.0000 H   0  0  0  0  0  0  0  0  0  0  0  0
   17.9646   -9.1745    0.0000 H   0  0  0  0  0  0  0  0  0  0  0  0
   14.9312  -11.4519    0.0000 H   0  0  0  0  0  0  0  0  0  0  0  0
   13.7506  -10.3224    0.0000 H   0  0  0  0  0  0  0  0  0  0  0  0
   14.4545   -8.6826    0.0000 H   0  0  0  0  0  0  0  0  0  0  0  0
   16.1602  -11.7355    0.0000 H   0  0  0  0  0  0  0  0  0  0  0  0
   17.9446  -11.7427    0.0000 H   0  0  0  0  0  0  0  0  0  0  0  0
   18.2018   -9.5637    0.0000 H   0  0  0  0  0  0  0  0  0  0  0  0
   20.0495   -5.3475    0.0000 H   0  0  0  0  0  0  0  0  0  0  0  0
   18.3068   -4.8954    0.0000 H   0  0  0  0  0  0  0  0  0  0  0  0
   16.8521   -5.1123    0.0000 H   0  0  0  0  0  0  0  0  0  0  0  0
   16.0861   -5.4717    0.0000 H   0  0  0  0  0  0  0  0  0  0  0  0
   15.3009   -5.3520    0.0000 H   0  0  0  0  0  0  0  0  0  0  0  0
   14.6964   -5.2807    0.0000 H   0  0  0  0  0  0  0  0  0  0  0  0
   13.3042   -4.8066    0.0000 H   0  0  0  0  0  0  0  0  0  0  0  0
   12.2453   -4.4648    0.0000 H   0  0  0  0  0  0  0  0  0  0  0  0
   20.5298   -4.9969    0.0000 H   0  0  0  0  0  0  0  0  0  0  0  0
   21.6165   -3.5815    0.0000 H   0  0  0  0  0  0  0  0  0  0  0  0
   20.7511   -2.1956    0.0000 H   0  0  0  0  0  0  0  0  0  0  0  0
   21.9038   -1.1423    0.0000 H   0  0  0  0  0  0  0  0  0  0  0  0
   21.8867   -0.1767    0.0000 H   0  0  0  0  0  0  0  0  0  0  0  0
   21.4038    2.9357    0.0000 H   0  0  0  0  0  0  0  0  0  0  0  0
   24.7698    1.4342    0.0000 H   0  0  0  0  0  0  0  0  0  0  0  0
   24.3477   -0.2905    0.0000 H   0  0  0  0  0  0  0  0  0  0  0  0
   22.5675   -0.4123    0.0000 H   0  0  0  0  0  0  0  0  0  0  0  0
   23.5297    4.1614    0.0000 H   0  0  0  0  0  0  0  0  0  0  0  0
   21.8225    3.6423    0.0000 H   0  0  0  0  0  0  0  0  0  0  0  0
   25.4618    3.6543    0.0000 H   0  0  0  0  0  0  0  0  0  0  0  0
   25.8103    1.7577    0.0000 H   0  0  0  0  0  0  0  0  0  0  0  0
   24.3599    1.0055    0.0000 H   0  0  0  0  0  0  0  0  0  0  0  0
   21.2990    4.4937    0.0000 H   0  0  0  0  0  0  0  0  0  0  0  0
   20.5333    5.0823    0.0000 H   0  0  0  0  0  0  0  0  0  0  0  0
   18.7808    7.7489    0.0000 H   0  0  0  0  0  0  0  0  0  0  0  0
   17.7989    6.6453    0.0000 H   0  0  0  0  0  0  0  0  0  0  0  0
   21.1420    5.4677    0.0000 H   0  0  0  0  0  0  0  0  0  0  0  0
   22.1844    9.0957    0.0000 H   0  0  0  0  0  0  0  0  0  0  0  0
   20.5627    9.8402    0.0000 H   0  0  0  0  0  0  0  0  0  0  0  0
   19.3765    8.5071    0.0000 H   0  0  0  0  0  0  0  0  0  0  0  0
   23.0206    8.1618    0.0000 H   0  0  0  0  0  0  0  0  0  0  0  0
   23.5820    6.4680    0.0000 H   0  0  0  0  0  0  0  0  0  0  0  0
   21.9438    5.4507    0.0000 H   0  0  0  0  0  0  0  0  0  0  0  0
   16.5154    7.5348    0.0000 H   0  0  0  0  0  0  0  0  0  0  0  0
   15.5778    7.3032    0.0000 H   0  0  0  0  0  0  0  0  0  0  0  0
   12.6756    8.0680    0.0000 H   0  0  0  0  0  0  0  0  0  0  0  0
   12.5439    6.2884    0.0000 H   0  0  0  0  0  0  0  0  0  0  0  0
   15.2810    9.6095    0.0000 H   0  0  0  0  0  0  0  0  0  0  0  0
   15.6560    8.0193    0.0000 H   0  0  0  0  0  0  0  0  0  0  0  0
   12.7605   12.2638    0.0000 H   0  0  0  0  0  0  0  0  0  0  0  0
   15.1077   11.3987    0.0000 H   0  0  0  0  0  0  0  0  0  0  0  0
   11.1553    5.6909    0.0000 H   0  0  0  0  0  0  0  0  0  0  0  0
    9.4964    1.2857    0.0000 H   0  0  0  0  0  0  0  0  0  0  0  0
    9.7291    3.0489    0.0000 H   0  0  0  0  0  0  0  0  0  0  0  0
    9.7041   -0.5680    0.0000 H   0  0  0  0  0  0  0  0  0  0  0  0
    9.2539    0.6604    0.0000 H   0  0  0  0  0  0  0  0  0  0  0  0
   10.2909   -2.1856    0.0000 H   0  0  0  0  0  0  0  0  0  0  0  0
    9.6566   -1.2371    0.0000 H   0  0  0  0  0  0  0  0  0  0  0  0
   10.7761   -3.1869    0.0000 H   0  0  0  0  0  0  0  0  0  0  0  0
   11.9709    1.9840    0.0000 H   0  0  0  0  0  0  0  0  0  0  0  0
   10.7976    0.7067    0.0000 H   0  0  0  0  0  0  0  0  0  0  0  0
   10.5941    0.1566    0.0000 H   0  0  0  0  0  0  0  0  0  0  0  0
    9.4625   -0.3958    0.0000 H   0  0  0  0  0  0  0  0  0  0  0  0
    9.1586   -0.8975    0.0000 H   0  0  0  0  0  0  0  0  0  0  0  0
    8.1251   -1.2455    0.0000 H   0  0  0  0  0  0  0  0  0  0  0  0
    7.2905   -1.7740    0.0000 H   0  0  0  0  0  0  0  0  0  0  0  0
   13.6988    6.2918    0.0000 H   0  0  0  0  0  0  0  0  0  0  0  0
   13.6822    7.4306    0.0000 H   0  0  0  0  0  0  0  0  0  0  0  0
   13.0824   10.1235    0.0000 H   0  0  0  0  0  0  0  0  0  0  0  0
   14.8065    9.2596    0.0000 H   0  0  0  0  0  0  0  0  0  0  0  0
   13.9276    7.2492    0.0000 H   0  0  0  0  0  0  0  0  0  0  0  0
   12.7690   11.3191    0.0000 H   0  0  0  0  0  0  0  0  0  0  0  0
   12.1271   12.0700    0.0000 H   0  0  0  0  0  0  0  0  0  0  0  0
   11.3746   14.8140    0.0000 H   0  0  0  0  0  0  0  0  0  0  0  0
    9.8080   13.9596    0.0000 H   0  0  0  0  0  0  0  0  0  0  0  0
   13.1846   14.9672    0.0000 H   0  0  0  0  0  0  0  0  0  0  0  0
   14.1228   13.2825    0.0000 H   0  0  0  0  0  0  0  0  0  0  0  0
   12.8096   12.0743    0.0000 H   0  0  0  0  0  0  0  0  0  0  0  0
    9.3287   15.1010    0.0000 H   0  0  0  0  0  0  0  0  0  0  0  0
    8.3359   15.3385    0.0000 H   0  0  0  0  0  0  0  0  0  0  0  0
    6.1150   17.3907    0.0000 H   0  0  0  0  0  0  0  0  0  0  0  0
    5.2591   15.8249    0.0000 H   0  0  0  0  0  0  0  0  0  0  0  0
    9.2549   17.5881    0.0000 H   0  0  0  0  0  0  0  0  0  0  0  0
    8.9388   15.9851    0.0000 H   0  0  0  0  0  0  0  0  0  0  0  0
    8.3646   20.9668    0.0000 H   0  0  0  0  0  0  0  0  0  0  0  0
   10.0976   19.0312    0.0000 H   0  0  0  0  0  0  0  0  0  0  0  0
    4.2387   16.5260    0.0000 H   0  0  0  0  0  0  0  0  0  0  0  0
    3.2751   16.1890    0.0000 H   0  0  0  0  0  0  0  0  0  0  0  0
    0.2973   16.7148    0.0000 H   0  0  0  0  0  0  0  0  0  0  0  0
    0.4238   14.9349    0.0000 H   0  0  0  0  0  0  0  0  0  0  0  0
    0.9098   18.4249    0.0000 H   0  0  0  0  0  0  0  0  0  0  0  0
    2.8321   18.5784    0.0000 H   0  0  0  0  0  0  0  0  0  0  0  0
    3.4327   17.0590    0.0000 H   0  0  0  0  0  0  0  0  0  0  0  0
   -0.8137   14.9730    0.0000 H   0  0  0  0  0  0  0  0  0  0  0  0
   -1.4421   14.1685    0.0000 H   0  0  0  0  0  0  0  0  0  0  0  0
   -3.1627   11.5719    0.0000 H   0  0  0  0  0  0  0  0  0  0  0  0
   -4.5935   14.9686    0.0000 H   0  0  0  0  0  0  0  0  0  0  0  0
   -3.1066   15.9391    0.0000 H   0  0  0  0  0  0  0  0  0  0  0  0
   -1.7798   14.9856    0.0000 H   0  0  0  0  0  0  0  0  0  0  0  0
   -5.5523   12.1303    0.0000 H   0  0  0  0  0  0  0  0  0  0  0  0
   -3.9513   11.3422    0.0000 H   0  0  0  0  0  0  0  0  0  0  0  0
   -6.6161   13.8209    0.0000 H   0  0  0  0  0  0  0  0  0  0  0  0
   -5.5741   15.4436    0.0000 H   0  0  0  0  0  0  0  0  0  0  0  0
   -4.0013   15.0014    0.0000 H   0  0  0  0  0  0  0  0  0  0  0  0
   -4.3053   10.7706    0.0000 H   0  0  0  0  0  0  0  0  0  0  0  0
   -4.3181    9.9185    0.0000 H   0  0  0  0  0  0  0  0  0  0  0  0
   -5.9244    7.2809    0.0000 H   0  0  0  0  0  0  0  0  0  0  0  0
   -4.3617    6.8038    0.0000 H   0  0  0  0  0  0  0  0  0  0  0  0
   -5.0440   10.4232    0.0000 H   0  0  0  0  0  0  0  0  0  0  0  0
   -8.5928    9.5122    0.0000 H   0  0  0  0  0  0  0  0  0  0  0  0
   -8.4832    7.7311    0.0000 H   0  0  0  0  0  0  0  0  0  0  0  0
   -6.7479    7.3152    0.0000 H   0  0  0  0  0  0  0  0  0  0  0  0
   -8.1645   10.6903    0.0000 H   0  0  0  0  0  0  0  0  0  0  0  0
   -6.9366   11.9851    0.0000 H   0  0  0  0  0  0  0  0  0  0  0  0
   -5.2663   11.0216    0.0000 H   0  0  0  0  0  0  0  0  0  0  0  0
   -4.9105    5.6940    0.0000 H   0  0  0  0  0  0  0  0  0  0  0  0
   -3.0113    1.6395    0.0000 H   0  0  0  0  0  0  0  0  0  0  0  0
   -3.8010    2.6202    0.0000 H   0  0  0  0  0  0  0  0  0  0  0  0
   -2.0093    0.4039    0.0000 H   0  0  0  0  0  0  0  0  0  0  0  0
   -2.7970    1.1580    0.0000 H   0  0  0  0  0  0  0  0  0  0  0  0
   -0.6183   -0.6791    0.0000 H   0  0  0  0  0  0  0  0  0  0  0  0
   -1.6325    0.0671    0.0000 H   0  0  0  0  0  0  0  0  0  0  0  0
    0.9526   -1.4793    0.0000 H   0  0  0  0  0  0  0  0  0  0  0  0
   -0.1845   -0.9385    0.0000 H   0  0  0  0  0  0  0  0  0  0  0  0
    2.6465   -1.9677    0.0000 H   0  0  0  0  0  0  0  0  0  0  0  0
    1.4276   -1.6519    0.0000 H   0  0  0  0  0  0  0  0  0  0  0  0
    4.5686   -2.0502    0.0000 H   0  0  0  0  0  0  0  0  0  0  0  0
    3.1455   -2.0474    0.0000 H   0  0  0  0  0  0  0  0  0  0  0  0
    5.5494   -2.1680    0.0000 H   0  0  0  0  0  0  0  0  0  0  0  0
   -5.7124    3.7480    0.0000 H   0  0  0  0  0  0  0  0  0  0  0  0
   -5.7726    5.3808    0.0000 H   0  0  0  0  0  0  0  0  0  0  0  0
   -4.3055    6.0999    0.0000 H   0  0  0  0  0  0  0  0  0  0  0  0
   -6.1526    4.6251    0.0000 H   0  0  0  0  0  0  0  0  0  0  0  0
   -4.9827    1.4419    0.0000 H   0  0  0  0  0  0  0  0  0  0  0  0
   -6.5070   -0.7821    0.0000 H   0  0  0  0  0  0  0  0  0  0  0  0
   -5.2731    0.5069    0.0000 H   0  0  0  0  0  0  0  0  0  0  0  0
   -8.9911    1.6543    0.0000 H   0  0  0  0  0  0  0  0  0  0  0  0
  -10.0084   -1.7425    0.0000 H   0  0  0  0  0  0  0  0  0  0  0  0
   -8.5970   -2.5656    0.0000 H   0  0  0  0  0  0  0  0  0  0  0  0
   -7.2151   -1.4366    0.0000 H   0  0  0  0  0  0  0  0  0  0  0  0
  -10.6096    1.7564    0.0000 H   0  0  0  0  0  0  0  0  0  0  0  0
  -10.9592   -0.2789    0.0000 H   0  0  0  0  0  0  0  0  0  0  0  0
   -9.8233   -0.9413    0.0000 H   0  0  0  0  0  0  0  0  0  0  0  0
   -8.4841   -0.3584    0.0000 H   0  0  0  0  0  0  0  0  0  0  0  0
   -9.5841    2.6810    0.0000 H   0  0  0  0  0  0  0  0  0  0  0  0
  -12.9876    2.3696    0.0000 H   0  0  0  0  0  0  0  0  0  0  0  0
  -12.4625    0.8224    0.0000 H   0  0  0  0  0  0  0  0  0  0  0  0
  -11.1608    4.9311    0.0000 H   0  0  0  0  0  0  0  0  0  0  0  0
  -10.1057    3.4920    0.0000 H   0  0  0  0  0  0  0  0  0  0  0  0
  -13.3405    1.6111    0.0000 H   0  0  0  0  0  0  0  0  0  0  0  0
  -12.1706   -1.5721    0.0000 H   0  0  0  0  0  0  0  0  0  0  0  0
  -13.8770   -3.8160    0.0000 H   0  0  0  0  0  0  0  0  0  0  0  0
  -12.4610   -2.5071    0.0000 H   0  0  0  0  0  0  0  0  0  0  0  0
  -16.9000   -2.4595    0.0000 H   0  0  0  0  0  0  0  0  0  0  0  0
  -16.1790   -1.3597    0.0000 H   0  0  0  0  0  0  0  0  0  0  0  0
  -17.7647   -5.8448    0.0000 H   0  0  0  0  0  0  0  0  0  0  0  0
  -18.6153   -3.6076    0.0000 H   0  0  0  0  0  0  0  0  0  0  0  0
  -15.6720   -3.3725    0.0000 H   0  0  0  0  0  0  0  0  0  0  0  0
  -16.7720   -0.3330    0.0000 H   0  0  0  0  0  0  0  0  0  0  0  0
  -20.1754   -0.6444    0.0000 H   0  0  0  0  0  0  0  0  0  0  0  0
  -19.4999   -2.2961    0.0000 H   0  0  0  0  0  0  0  0  0  0  0  0
  -18.3487    1.9171    0.0000 H   0  0  0  0  0  0  0  0  0  0  0  0
  -17.2936    0.4780    0.0000 H   0  0  0  0  0  0  0  0  0  0  0  0
  -21.5325    3.3565    0.0000 H   0  0  0  0  0  0  0  0  0  0  0  0
  -18.9374    3.4811    0.0000 H   0  0  0  0  0  0  0  0  0  0  0  0
  -20.5284   -1.4029    0.0000 H   0  0  0  0  0  0  0  0  0  0  0  0
  -19.3585   -4.5861    0.0000 H   0  0  0  0  0  0  0  0  0  0  0  0
  -21.0649   -6.8300    0.0000 H   0  0  0  0  0  0  0  0  0  0  0  0
  -19.6489   -5.5211    0.0000 H   0  0  0  0  0  0  0  0  0  0  0  0
  -23.0447   -7.0953    0.0000 H   0  0  0  0  0  0  0  0  0  0  0  0
  -24.0879   -5.4735    0.0000 H   0  0  0  0  0  0  0  0  0  0  0  0
  -23.3669   -4.3737    0.0000 H   0  0  0  0  0  0  0  0  0  0  0  0
  -22.6809   -6.3476    0.0000 H   0  0  0  0  0  0  0  0  0  0  0  0
  -23.9599   -3.3470    0.0000 H   0  0  0  0  0  0  0  0  0  0  0  0
  -27.3975   -3.8384    0.0000 H   0  0  0  0  0  0  0  0  0  0  0  0
  -26.6878   -5.3101    0.0000 H   0  0  0  0  0  0  0  0  0  0  0  0
  -25.5366   -1.0969    0.0000 H   0  0  0  0  0  0  0  0  0  0  0  0
  -24.4815   -2.5360    0.0000 H   0  0  0  0  0  0  0  0  0  0  0  0
  -28.8030   -1.6533    0.0000 H   0  0  0  0  0  0  0  0  0  0  0  0
  -27.9311   -3.2103    0.0000 H   0  0  0  0  0  0  0  0  0  0  0  0
  -26.1253    0.4671    0.0000 H   0  0  0  0  0  0  0  0  0  0  0  0
  -30.1259    2.5276    0.0000 H   0  0  0  0  0  0  0  0  0  0  0  0
  -27.5308    2.6522    0.0000 H   0  0  0  0  0  0  0  0  0  0  0  0
  -31.3155    0.2179    0.0000 H   0  0  0  0  0  0  0  0  0  0  0  0
  -29.9101   -1.9672    0.0000 H   0  0  0  0  0  0  0  0  0  0  0  0
  -27.7163   -4.4170    0.0000 H   0  0  0  0  0  0  0  0  0  0  0  0
  -26.5464   -7.6001    0.0000 H   0  0  0  0  0  0  0  0  0  0  0  0
  -28.2528   -9.8440    0.0000 H   0  0  0  0  0  0  0  0  0  0  0  0
  -26.8367   -8.5351    0.0000 H   0  0  0  0  0  0  0  0  0  0  0  0
  -31.2758   -8.4875    0.0000 H   0  0  0  0  0  0  0  0  0  0  0  0
  -30.5548   -7.3877    0.0000 H   0  0  0  0  0  0  0  0  0  0  0  0
  -30.0478   -9.4005    0.0000 H   0  0  0  0  0  0  0  0  0  0  0  0
  -31.1477   -6.3610    0.0000 H   0  0  0  0  0  0  0  0  0  0  0  0
  -34.5974   -7.0352    0.0000 H   0  0  0  0  0  0  0  0  0  0  0  0
  -33.7135   -8.4094    0.0000 H   0  0  0  0  0  0  0  0  0  0  0  0
  -32.7245   -4.1109    0.0000 H   0  0  0  0  0  0  0  0  0  0  0  0
  -31.6694   -5.5500    0.0000 H   0  0  0  0  0  0  0  0  0  0  0  0
  -35.9909   -4.6673    0.0000 H   0  0  0  0  0  0  0  0  0  0  0  0
  -35.1190   -6.2243    0.0000 H   0  0  0  0  0  0  0  0  0  0  0  0
  -33.3132   -2.5469    0.0000 H   0  0  0  0  0  0  0  0  0  0  0  0
  -37.3138   -0.4864    0.0000 H   0  0  0  0  0  0  0  0  0  0  0  0
  -34.7187   -0.3618    0.0000 H   0  0  0  0  0  0  0  0  0  0  0  0
  -38.5034   -2.7961    0.0000 H   0  0  0  0  0  0  0  0  0  0  0  0
  -37.0979   -4.9813    0.0000 H   0  0  0  0  0  0  0  0  0  0  0  0
  1  2  1  0
  2  3  1  0
  3  4  2  0
  4  5  1  0
  5  6  2  0
  6  7  1  0
  7  8  2  0
  7  9  1  0
  9 10  1  0
 10 11  1  0
 11 12  2  0
  9 13  1  0
 13 14  1  0
 14 15  2  0
 15 16  1  0
 16 17  2  0
 17 18  1  0
 16 19  1  0
 14 20  1  0
 20 21  1  0
 21 22  2  0
 22 23  1  0
 23 24  2  0
 24 25  1  0
 25 26  2  0
 25 27  1  0
  1 28  2  0
  1 29  1  0
 29 30  1  0
 30 31  1  0
 31 32  1  0
 32 33  2  0
 32 34  1  0
 34 35  1  0
 35 36  1  0
 36 37  1  0
 37 38  1  0
 37 39  1  0
 35 40  1  0
 40 41  2  0
 40 42  1  0
 43 42  1  1
 43 44  1  0
 44 45  1  0
 45 46  1  0
 46 47  1  0
 43 48  1  0
 43 49  1  0
 49 50  2  0
 49 51  1  0
 51 52  1  0
 52 53  1  0
 53 54  1  0
 53 55  1  0
 55 56  1  0
 52 57  1  0
 57 58  2  0
 57 59  1  0
 59 60  1  0
 60 61  1  0
 61 62  1  0
 62 63  1  0
 62 64  1  0
 60 65  1  0
 65 66  2  0
 65 67  1  0
 67 68  1  0
 68 69  1  0
 69 70  1  0
 70 71  1  0
 71 72  1  0
 71 73  2  0
 68 74  1  0
 74 75  2  0
 74 76  1  0
 76 77  1  0
 77 78  1  0
 78 79  1  0
 79 80  1  0
 80 81  1  0
 77 82  1  0
 82 83  1  0
 83 84  1  0
 84 85  1  0
 77 86  1  0
 86 87  2  0
 86 88  1  0
 88 89  1  0
 89 90  1  0
 89 91  1  0
 91 92  2  0
 91 93  1  0
 93 94  1  0
 94 95  1  0
 95 96  1  0
 94 97  1  0
 97 98  2  0
 97 99  1  0
 99100  1  0
100101  1  0
101102  1  0
102103  1  0
103104  1  0
103105  2  0
100106  1  0
106107  2  0
106108  1  0
108109  1  0
109110  1  0
110111  1  0
109112  1  0
112113  2  0
112114  1  0
114115  1  0
115116  1  0
116117  1  0
116118  1  0
118119  1  0
115120  1  0
120121  2  0
120122  1  0
122123  1  0
123124  1  0
124125  1  0
125126  1  0
125127  1  0
123128  1  0
128129  2  0
128130  1  0
130131  1  0
131132  1  0
132133  1  0
133134  1  0
134135  1  0
135136  1  0
136137  1  0
137138  1  0
131139  1  0
131140  1  1
140141  2  0
140142  1  0
142143  1  0
143144  1  0
144145  1  0
145146  1  0
145147  1  0
143148  1  0
148149  2  0
148150  1  0
150151  1  0
151152  1  0
152153  1  0
153154  1  0
154155  2  0
154156  1  0
151157  1  0
157158  2  0
157159  1  0
159160  1  0
160161  1  0
161162  1  0
162163  1  0
163164  1  0
163165  2  0
160166  1  0
166167  2  0
166168  1  0
168169  1  0
169170  1  0
170171  1  0
171172  1  0
172173  1  0
172174  2  0
169175  1  0
175176  2  0
175177  1  0
177178  1  0
178179  1  0
179180  1  0
178181  1  0
181182  2  0
181183  1  0
183184  1  0
184185  1  0
185186  1  0
186187  1  0
187188  1  0
188189  1  0
189190  2  3
189191  1  0
184192  1  0
192193  2  0
192194  1  0
194195  1  0
195196  1  0
196197  1  0
197198  1  0
198199  2  0
198200  1  0
195201  1  0
201202  2  0
201203  1  0
203204  1  0
204205  1  0
205206  1  0
206207  1  0
207208  1  0
208209  1  0
209210  2  3
209211  1  0
204212  1  0
212213  2  0
212214  1  0
  8  3  1  0
 11  6  1  0
 18 13  2  0
 47 81  2  0
 22  9  1  0
 85138  2  0
 26 21  1  0
  2215  1  0
  4216  1  0
  5217  1  0
  8218  1  0
 15219  1  0
 17220  1  0
 18221  1  0
 19222  1  0
 23223  1  0
 24224  1  0
 26225  1  0
 27226  1  0
 29227  1  0
 30228  1  0
 30229  1  0
 31230  1  0
 31231  1  0
 34232  1  0
 35233  1  1
 36234  1  0
 36235  1  0
 37236  1  0
 38237  1  0
 38238  1  0
 38239  1  0
 39240  1  0
 39241  1  0
 39242  1  0
 42243  1  0
 44244  1  0
 44245  1  0
 45246  1  0
 45247  1  0
 46248  1  0
 46249  1  0
 47250  1  0
 48251  1  0
 48252  1  0
 48253  1  0
 51254  1  0
 52255  1  6
 53256  1  1
 54257  1  0
 54258  1  0
 54259  1  0
 55260  1  0
 55261  1  0
 56262  1  0
 56263  1  0
 56264  1  0
 59265  1  0
 60266  1  6
 61267  1  0
 61268  1  0
 62269  1  0
 63270  1  0
 63271  1  0
 63272  1  0
 64273  1  0
 64274  1  0
 64275  1  0
 67276  1  0
 68277  1  6
 69278  1  0
 69279  1  0
 70280  1  0
 70281  1  0
 72282  1  0
 72283  1  0
 76284  1  0
 78285  1  0
 78286  1  0
 79287  1  0
 79288  1  0
 80289  1  0
 80290  1  0
 81291  1  0
 82292  1  0
 82293  1  0
 83294  1  0
 83295  1  0
 84296  1  0
 84297  1  0
 85298  1  0
 88299  1  0
 89300  1  6
 90301  1  0
 90302  1  0
 90303  1  0
 93304  1  0
 94305  1  6
 95306  1  0
 95307  1  0
 96308  1  0
 96309  1  0
 96310  1  0
 99311  1  0
100312  1  6
101313  1  0
101314  1  0
102315  1  0
102316  1  0
104317  1  0
104318  1  0
108319  1  0
109320  1  6
110321  1  0
110322  1  0
111323  1  0
111324  1  0
111325  1  0
114326  1  0
115327  1  6
116328  1  1
117329  1  0
117330  1  0
117331  1  0
118332  1  0
118333  1  0
119334  1  0
119335  1  0
119336  1  0
122337  1  0
123338  1  6
124339  1  0
124340  1  0
125341  1  0
126342  1  0
126343  1  0
126344  1  0
127345  1  0
127346  1  0
127347  1  0
130348  1  0
132349  1  0
132350  1  0
133351  1  0
133352  1  0
134353  1  0
134354  1  0
135355  1  0
135356  1  0
136357  1  0
136358  1  0
137359  1  0
137360  1  0
138361  1  0
139362  1  0
139363  1  0
139364  1  0
142365  1  0
143366  1  1
144367  1  0
144368  1  0
145369  1  0
146370  1  0
146371  1  0
146372  1  0
147373  1  0
147374  1  0
147375  1  0
150376  1  0
151377  1  6
152378  1  0
152379  1  0
153380  1  0
153381  1  0
159382  1  0
160383  1  1
161384  1  0
161385  1  0
162386  1  0
162387  1  0
164388  1  0
164389  1  0
168390  1  0
169391  1  6
170392  1  0
170393  1  0
171394  1  0
171395  1  0
173396  1  0
173397  1  0
177398  1  0
178399  1  1
179400  1  0
179401  1  0
180402  1  0
180403  1  0
180404  1  0
183405  1  0
184406  1  6
185407  1  0
185408  1  0
186409  1  0
186410  1  0
187411  1  0
187412  1  0
188413  1  0
190414  1  0
190415  1  0
191416  1  0
191417  1  0
194418  1  0
195419  1  1
196420  1  0
196421  1  0
197422  1  0
197423  1  0
203424  1  0
204425  1  6
205426  1  0
205427  1  0
206428  1  0
206429  1  0
207430  1  0
207431  1  0
208432  1  0
210433  1  0
210434  1  0
211435  1  0
211436  1  0
M  CHG  5 156  -1 190   1 200  -1 210   1 214  -1
M  END
