
     RDKit          2D

302309  0  0  0  0  0  0  0  0999 V2000
   20.4627   -3.1165    0.0000 C   0  0  0  0  0  0  0  0  0  0  0  0
   21.7967   -2.4307    0.0000 N   0  0  0  0  0  0  0  0  0  0  0  0
   23.0577   -3.2431    0.0000 C   0  0  0  0  0  0  0  0  0  0  0  0
   22.9845   -4.7413    0.0000 C   0  0  0  0  0  0  0  0  0  0  0  0
   24.2455   -5.5538    0.0000 C   0  0  0  0  0  0  0  0  0  0  0  0
   25.5795   -4.8680    0.0000 C   0  0  0  0  0  0  0  0  0  0  0  0
   25.6526   -3.3698    0.0000 C   0  0  0  0  0  0  0  0  0  0  0  0
   24.3917   -2.5573    0.0000 C   0  0  0  0  0  0  0  0  0  0  0  0
   27.1001   -2.9763    0.0000 C   0  0  0  0  0  0  0  0  0  0  0  0
   27.9216   -4.2314    0.0000 O   0  0  0  0  0  0  0  0  0  0  0  0
   26.9818   -5.4005    0.0000 C   0  0  0  0  0  0  0  0  0  0  0  0
   27.3752   -6.8480    0.0000 O   0  0  0  0  0  0  0  0  0  0  0  0
   28.5808   -2.7364    0.0000 C   0  0  0  0  0  0  0  0  0  0  0  0
   29.1133   -1.3341    0.0000 C   0  0  0  0  0  0  0  0  0  0  0  0
   30.5940   -1.0941    0.0000 C   0  0  0  0  0  0  0  0  0  0  0  0
   31.5422   -2.2564    0.0000 C   0  0  0  0  0  0  0  0  0  0  0  0
   31.0096   -3.6587    0.0000 C   0  0  0  0  0  0  0  0  0  0  0  0
   29.5290   -3.8987    0.0000 C   0  0  0  0  0  0  0  0  0  0  0  0
   33.0228   -2.0165    0.0000 O   0  0  0  0  0  0  0  0  0  0  0  0
   28.1652   -0.1718    0.0000 O   0  0  0  0  0  0  0  0  0  0  0  0
   26.6845   -0.4117    0.0000 C   0  0  0  0  0  0  0  0  0  0  0  0
   26.1520   -1.8140    0.0000 C   0  0  0  0  0  0  0  0  0  0  0  0
   24.9198   -1.3996    0.0000 C   0  0  0  0  0  0  0  0  0  0  0  0
   24.4141   -0.7797    0.0000 C   0  0  0  0  0  0  0  0  0  0  0  0
   24.6981   -0.0318    0.0000 C   0  0  0  0  0  0  0  0  0  0  0  0
   25.4878    0.0962    0.0000 C   0  0  0  0  0  0  0  0  0  0  0  0
   23.3075    1.6729    0.0000 O   0  0  0  0  0  0  0  0  0  0  0  0
   20.3895   -4.6147    0.0000 S   0  0  0  0  0  0  0  0  0  0  0  0
   19.2017   -2.3040    0.0000 N   0  0  0  0  0  0  0  0  0  0  0  0
   17.8677   -2.9898    0.0000 C   0  0  0  0  0  0  0  0  0  0  0  0
   16.6067   -2.1774    0.0000 C   0  0  0  0  0  0  0  0  0  0  0  0
   15.2727   -2.8632    0.0000 C   0  0  0  0  0  0  0  0  0  0  0  0
   15.4276   -3.6451    0.0000 O   0  0  0  0  0  0  0  0  0  0  0  0
   14.0118   -2.0507    0.0000 N   0  0  0  0  0  0  0  0  0  0  0  0
   12.6777   -2.7365    0.0000 C   0  0  0  0  0  0  0  0  0  0  0  0
   13.5847   -3.9312    0.0000 C   0  0  0  0  0  0  0  0  0  0  0  0
   15.0729   -3.7431    0.0000 C   0  0  0  0  0  0  0  0  0  0  0  0
   15.9799   -4.9378    0.0000 N   0  0  0  0  0  0  0  0  0  0  0  0
   15.9714   -2.5419    0.0000 O   0  0  0  0  0  0  0  0  0  0  0  0
   11.1895   -2.9247    0.0000 C   0  0  0  0  0  0  0  0  0  0  0  0
   10.9603   -4.4070    0.0000 O   0  0  0  0  0  0  0  0  0  0  0  0
   10.2825   -1.7300    0.0000 N   0  0  0  0  0  0  0  0  0  0  0  0
    8.7944   -1.9181    0.0000 C   0  0  0  0  0  0  0  0  0  0  0  0
    9.2381   -3.3510    0.0000 C   0  0  0  0  0  0  0  0  0  0  0  0
   10.7008   -3.6832    0.0000 C   0  0  0  0  0  0  0  0  0  0  0  0
   11.1445   -5.1160    0.0000 C   0  0  0  0  0  0  0  0  0  0  0  0
   12.5559   -5.6240    0.0000 N   0  0  0  0  0  0  0  0  0  0  0  0
   10.1255   -6.2167    0.0000 O   0  0  0  0  0  0  0  0  0  0  0  0
    7.3316   -1.5859    0.0000 C   0  0  0  0  0  0  0  0  0  0  0  0
    6.6092   -2.9005    0.0000 O   0  0  0  0  0  0  0  0  0  0  0  0
    6.8879   -0.1531    0.0000 N   0  0  0  0  0  0  0  0  0  0  0  0
    5.4252    0.1791    0.0000 C   0  0  0  0  0  0  0  0  0  0  0  0
    5.3520   -1.3191    0.0000 C   0  0  0  0  0  0  0  0  0  0  0  0
    6.6130   -2.1315    0.0000 C   0  0  0  0  0  0  0  0  0  0  0  0
    6.5398   -3.6298    0.0000 C   0  0  0  0  0  0  0  0  0  0  0  0
    8.0757   -2.4637    0.0000 C   0  0  0  0  0  0  0  0  0  0  0  0
    4.1642    0.9915    0.0000 C   0  0  0  0  0  0  0  0  0  0  0  0
    3.0358    0.0033    0.0000 O   0  0  0  0  0  0  0  0  0  0  0  0
    4.2373    2.4898    0.0000 N   0  0  0  0  0  0  0  0  0  0  0  0
    2.9764    3.3022    0.0000 C   0  0  0  0  0  0  0  0  0  0  0  0
    2.8084    1.8116    0.0000 C   0  0  0  0  0  0  0  0  0  0  0  0
    2.3614    0.3798    0.0000 C   0  0  0  0  0  0  0  0  0  0  0  0
    1.6514   -0.9416    0.0000 C   0  0  0  0  0  0  0  0  0  0  0  0
    0.7042   -2.1047    0.0000 C   0  0  0  0  0  0  0  0  0  0  0  0
   -0.4460   -3.0675    0.0000 C   0  0  0  0  0  0  0  0  0  0  0  0
   -1.7576   -3.7953    0.0000 C   0  0  0  0  0  0  0  0  0  0  0  0
   -3.1832   -4.2617    0.0000 C   0  0  0  0  0  0  0  0  0  0  0  0
    4.2643    4.0712    0.0000 C   0  0  0  0  0  0  0  0  0  0  0  0
    2.8593    4.7976    0.0000 C   0  0  0  0  0  0  0  0  0  0  0  0
    4.2942    5.2345    0.0000 O   0  0  0  0  0  0  0  0  0  0  0  0
    2.4613    6.2438    0.0000 N   0  0  0  0  0  0  0  0  0  0  0  0
    1.7967    7.5886    0.0000 C   0  0  0  0  0  0  0  0  0  0  0  0
    2.4644    8.9318    0.0000 C   0  0  0  0  0  0  0  0  0  0  0  0
    3.9615    9.0252    0.0000 C   0  0  0  0  0  0  0  0  0  0  0  0
    4.6292   10.3684    0.0000 C   0  0  0  0  0  0  0  0  0  0  0  0
    5.4002    8.6009    0.0000 C   0  0  0  0  0  0  0  0  0  0  0  0
    0.8897    8.7833    0.0000 C   0  0  0  0  0  0  0  0  0  0  0  0
    1.8607    9.9267    0.0000 O   0  0  0  0  0  0  0  0  0  0  0  0
   -0.2270    9.7848    0.0000 N   0  0  0  0  0  0  0  0  0  0  0  0
   -1.5131   10.5568    0.0000 C   0  0  0  0  0  0  0  0  0  0  0  0
   -1.6776   12.0477    0.0000 C   0  0  0  0  0  0  0  0  0  0  0  0
   -0.4687   12.9357    0.0000 O   0  0  0  0  0  0  0  0  0  0  0  0
   -2.9220   11.0715    0.0000 C   0  0  0  0  0  0  0  0  0  0  0  0
   -2.7234   12.5583    0.0000 O   0  0  0  0  0  0  0  0  0  0  0  0
   -4.4029   11.3102    0.0000 N   0  0  0  0  0  0  0  0  0  0  0  0
   -5.9022   11.2644    0.0000 C   0  0  0  0  0  0  0  0  0  0  0  0
   -6.8467   12.4297    0.0000 C   0  0  0  0  0  0  0  0  0  0  0  0
   -6.3097   13.8303    0.0000 C   0  0  0  0  0  0  0  0  0  0  0  0
   -4.8283   14.0655    0.0000 C   0  0  0  0  0  0  0  0  0  0  0  0
   -4.2913   15.4661    0.0000 C   0  0  0  0  0  0  0  0  0  0  0  0
   -5.2358   16.6315    0.0000 C   0  0  0  0  0  0  0  0  0  0  0  0
   -6.7172   16.3962    0.0000 C   0  0  0  0  0  0  0  0  0  0  0  0
   -7.2542   14.9956    0.0000 C   0  0  0  0  0  0  0  0  0  0  0  0
   -7.3657   10.9356    0.0000 C   0  0  0  0  0  0  0  0  0  0  0  0
   -8.0024   12.2938    0.0000 O   0  0  0  0  0  0  0  0  0  0  0  0
   -8.7406   10.3358    0.0000 N   0  0  0  0  0  0  0  0  0  0  0  0
   -9.9771    9.4867    0.0000 C   0  0  0  0  0  0  0  0  0  0  0  0
  -11.4017    9.9564    0.0000 C   0  0  0  0  0  0  0  0  0  0  0  0
  -11.7072   11.4249    0.0000 C   0  0  0  0  0  0  0  0  0  0  0  0
  -10.5881   12.4238    0.0000 C   0  0  0  0  0  0  0  0  0  0  0  0
  -10.8936   13.8923    0.0000 C   0  0  0  0  0  0  0  0  0  0  0  0
  -12.3182   14.3621    0.0000 C   0  0  0  0  0  0  0  0  0  0  0  0
  -13.4372   13.3632    0.0000 C   0  0  0  0  0  0  0  0  0  0  0  0
  -13.1317   11.8947    0.0000 C   0  0  0  0  0  0  0  0  0  0  0  0
  -11.0306    8.4189    0.0000 C   0  0  0  0  0  0  0  0  0  0  0  0
  -12.3005    9.2172    0.0000 O   0  0  0  0  0  0  0  0  0  0  0  0
  -11.8629    7.1710    0.0000 N   0  0  0  0  0  0  0  0  0  0  0  0
  -12.4440    5.7881    0.0000 C   0  0  0  0  0  0  0  0  0  0  0  0
  -13.8964    5.4131    0.0000 C   0  0  0  0  0  0  0  0  0  0  0  0
  -12.7530    4.3203    0.0000 C   0  0  0  0  0  0  0  0  0  0  0  0
  -14.2529    4.3053    0.0000 O   0  0  0  0  0  0  0  0  0  0  0  0
  -12.7785    2.8205    0.0000 N   0  0  0  0  0  0  0  0  0  0  0  0
  -12.5198    1.3430    0.0000 C   0  0  0  0  0  0  0  0  0  0  0  0
  -13.5388    0.2423    0.0000 C   0  0  0  0  0  0  0  0  0  0  0  0
  -15.0016    0.5745    0.0000 C   0  0  0  0  0  0  0  0  0  0  0  0
  -16.0206   -0.5262    0.0000 C   0  0  0  0  0  0  0  0  0  0  0  0
  -17.4834   -0.1941    0.0000 N   0  0  0  0  0  0  0  0  0  0  0  0
  -18.5024   -1.2948    0.0000 C   0  0  0  0  0  0  0  0  0  0  0  0
  -19.9652   -0.9626    0.0000 N   0  0  0  0  0  0  0  0  0  0  0  0
  -18.0587   -2.7276    0.0000 N   0  0  0  0  0  0  0  0  0  0  0  0
  -11.9861   -0.0589    0.0000 C   0  0  0  0  0  0  0  0  0  0  0  0
  -13.2398   -0.8824    0.0000 O   0  0  0  0  0  0  0  0  0  0  0  0
  -11.1967   -1.3344    0.0000 N   0  0  0  0  0  0  0  0  0  0  0  0
  -10.1803   -2.4375    0.0000 C   0  0  0  0  0  0  0  0  0  0  0  0
   -8.9734   -3.3282    0.0000 C   0  0  0  0  0  0  0  0  0  0  0  0
   -7.6198   -3.9745    0.0000 C   0  0  0  0  0  0  0  0  0  0  0  0
   -6.1683   -4.3529    0.0000 C   0  0  0  0  0  0  0  0  0  0  0  0
   -4.6714   -4.4498    0.0000 C   0  0  0  0  0  0  0  0  0  0  0  0
  -11.6200   -2.8584    0.0000 C   0  0  0  0  0  0  0  0  0  0  0  0
  -10.4425   -3.9144    0.0000 C   0  0  0  0  0  0  0  0  0  0  0  0
   -9.5623   -5.1290    0.0000 O   0  0  0  0  0  0  0  0  0  0  0  0
  -11.8526   -4.4257    0.0000 N   0  0  0  0  0  0  0  0  0  0  0  0
  -12.1148   -5.9027    0.0000 C   0  0  0  0  0  0  0  0  0  0  0  0
  -11.8560   -7.3802    0.0000 C   0  0  0  0  0  0  0  0  0  0  0  0
  -13.0062   -8.3430    0.0000 C   0  0  0  0  0  0  0  0  0  0  0  0
  -12.7475   -9.8205    0.0000 O   0  0  0  0  0  0  0  0  0  0  0  0
  -14.4978   -8.1846    0.0000 O   0  0  0  0  0  0  0  0  0  0  0  0
  -13.5249   -6.4140    0.0000 C   0  0  0  0  0  0  0  0  0  0  0  0
  -14.6729   -5.4485    0.0000 O   0  0  0  0  0  0  0  0  0  0  0  0
  -13.7871   -7.8909    0.0000 N   0  0  0  0  0  0  0  0  0  0  0  0
  -15.1973   -8.4023    0.0000 C   0  0  0  0  0  0  0  0  0  0  0  0
  -16.6973   -8.4006    0.0000 C   0  0  0  0  0  0  0  0  0  0  0  0
  -17.4488   -9.6987    0.0000 C   0  0  0  0  0  0  0  0  0  0  0  0
  -18.9488   -9.6970    0.0000 C   0  0  0  0  0  0  0  0  0  0  0  0
  -19.8529  -10.8939    0.0000 N   0  0  0  0  0  0  0  0  0  0  0  0
  -19.6973   -8.3971    0.0000 O   0  0  0  0  0  0  0  0  0  0  0  0
  -15.4595   -9.8792    0.0000 C   0  0  0  0  0  0  0  0  0  0  0  0
  -14.3115  -10.8448    0.0000 O   0  0  0  0  0  0  0  0  0  0  0  0
  -16.8696  -10.3906    0.0000 N   0  0  0  0  0  0  0  0  0  0  0  0
  -17.1318  -11.8675    0.0000 C   0  0  0  0  0  0  0  0  0  0  0  0
  -16.8730  -13.3450    0.0000 C   0  0  0  0  0  0  0  0  0  0  0  0
  -18.0232  -14.3079    0.0000 C   0  0  0  0  0  0  0  0  0  0  0  0
  -16.1246  -14.6450    0.0000 C   0  0  0  0  0  0  0  0  0  0  0  0
  -14.6246  -14.6467    0.0000 C   0  0  0  0  0  0  0  0  0  0  0  0
  -18.5419  -12.3789    0.0000 C   0  0  0  0  0  0  0  0  0  0  0  0
  -18.9822  -13.8128    0.0000 O   0  0  0  0  0  0  0  0  0  0  0  0
  -19.7990  -11.5605    0.0000 O   0  0  0  0  0  0  0  0  0  0  0  0
   21.6867   -0.9347    0.0000 H   0  0  0  0  0  0  0  0  0  0  0  0
   21.6505   -5.4271    0.0000 H   0  0  0  0  0  0  0  0  0  0  0  0
   24.1723   -7.0520    0.0000 H   0  0  0  0  0  0  0  0  0  0  0  0
   24.1001   -1.0860    0.0000 H   0  0  0  0  0  0  0  0  0  0  0  0
   31.1265    0.3082    0.0000 H   0  0  0  0  0  0  0  0  0  0  0  0
   31.9578   -4.8210    0.0000 H   0  0  0  0  0  0  0  0  0  0  0  0
   28.9964   -5.3010    0.0000 H   0  0  0  0  0  0  0  0  0  0  0  0
   33.9710   -3.1788    0.0000 H   0  0  0  0  0  0  0  0  0  0  0  0
   24.1388   -3.4563    0.0000 H   0  0  0  0  0  0  0  0  0  0  0  0
   22.2242   -0.9494    0.0000 H   0  0  0  0  0  0  0  0  0  0  0  0
   26.2688    2.1529    0.0000 H   0  0  0  0  0  0  0  0  0  0  0  0
   23.8400    3.0752    0.0000 H   0  0  0  0  0  0  0  0  0  0  0  0
   19.2749   -0.8058    0.0000 H   0  0  0  0  0  0  0  0  0  0  0  0
   18.7747   -4.1845    0.0000 H   0  0  0  0  0  0  0  0  0  0  0  0
   16.9904   -4.2065    0.0000 H   0  0  0  0  0  0  0  0  0  0  0  0
   17.6258   -1.0767    0.0000 H   0  0  0  0  0  0  0  0  0  0  0  0
   15.6997   -0.9827    0.0000 H   0  0  0  0  0  0  0  0  0  0  0  0
   14.0849   -0.5525    0.0000 H   0  0  0  0  0  0  0  0  0  0  0  0
   12.2340   -1.3036    0.0000 H   0  0  0  0  0  0  0  0  0  0  0  0
   14.0284   -5.3641    0.0000 H   0  0  0  0  0  0  0  0  0  0  0  0
   12.3442   -4.7745    0.0000 H   0  0  0  0  0  0  0  0  0  0  0  0
   17.4799   -4.9324    0.0000 H   0  0  0  0  0  0  0  0  0  0  0  0
   15.3988   -6.3206    0.0000 H   0  0  0  0  0  0  0  0  0  0  0  0
   10.8637   -0.3471    0.0000 H   0  0  0  0  0  0  0  0  0  0  0  0
    9.0496   -0.4400    0.0000 H   0  0  0  0  0  0  0  0  0  0  0  0
    9.1650   -4.8492    0.0000 H   0  0  0  0  0  0  0  0  0  0  0  0
    7.8397   -3.8936    0.0000 H   0  0  0  0  0  0  0  0  0  0  0  0
   12.1890   -3.4950    0.0000 H   0  0  0  0  0  0  0  0  0  0  0  0
   11.1343   -2.2472    0.0000 H   0  0  0  0  0  0  0  0  0  0  0  0
   13.0510   -6.8811    0.0000 H   0  0  0  0  0  0  0  0  0  0  0  0
   13.9034   -4.6445    0.0000 H   0  0  0  0  0  0  0  0  0  0  0  0
    7.9070    0.9476    0.0000 H   0  0  0  0  0  0  0  0  0  0  0  0
    6.0063    1.5620    0.0000 H   0  0  0  0  0  0  0  0  0  0  0  0
    4.6067   -2.6208    0.0000 H   0  0  0  0  0  0  0  0  0  0  0  0
    3.8893   -0.9869    0.0000 H   0  0  0  0  0  0  0  0  0  0  0  0
    7.5114   -0.9304    0.0000 H   0  0  0  0  0  0  0  0  0  0  0  0
    7.5667   -4.7232    0.0000 H   0  0  0  0  0  0  0  0  0  0  0  0
    5.9587   -5.0126    0.0000 H   0  0  0  0  0  0  0  0  0  0  0  0
    5.0475   -3.4784    0.0000 H   0  0  0  0  0  0  0  0  0  0  0  0
    8.5194   -3.8966    0.0000 H   0  0  0  0  0  0  0  0  0  0  0  0
    9.5652   -2.6413    0.0000 H   0  0  0  0  0  0  0  0  0  0  0  0
    7.9657   -0.9678    0.0000 H   0  0  0  0  0  0  0  0  0  0  0  0
    5.6450    3.0078    0.0000 H   0  0  0  0  0  0  0  0  0  0  0  0
    4.3004    1.9666    0.0000 H   0  0  0  0  0  0  0  0  0  0  0  0
    3.7584    0.6508    0.0000 H   0  0  0  0  0  0  0  0  0  0  0  0
    3.8287    0.0684    0.0000 H   0  0  0  0  0  0  0  0  0  0  0  0
    3.2300   -0.8431    0.0000 H   0  0  0  0  0  0  0  0  0  0  0  0
    3.1506   -0.9909    0.0000 H   0  0  0  0  0  0  0  0  0  0  0  0
    2.4347   -2.2208    0.0000 H   0  0  0  0  0  0  0  0  0  0  0  0
    2.1156   -2.6127    0.0000 H   0  0  0  0  0  0  0  0  0  0  0  0
    1.2313   -3.5090    0.0000 H   0  0  0  0  0  0  0  0  0  0  0  0
    0.8437   -3.8334    0.0000 H   0  0  0  0  0  0  0  0  0  0  0  0
   -0.1942   -4.5462    0.0000 H   0  0  0  0  0  0  0  0  0  0  0  0
   -0.6361   -4.7914    0.0000 H   0  0  0  0  0  0  0  0  0  0  0  0
   -1.9728   -5.2798    0.0000 H   0  0  0  0  0  0  0  0  0  0  0  0
   -2.8545   -5.7252    0.0000 H   0  0  0  0  0  0  0  0  0  0  0  0
    5.6535    3.5055    0.0000 H   0  0  0  0  0  0  0  0  0  0  0  0
    5.3462    5.1102    0.0000 H   0  0  0  0  0  0  0  0  0  0  0  0
    3.5871    5.4096    0.0000 H   0  0  0  0  0  0  0  0  0  0  0  0
    3.9177    6.6027    0.0000 H   0  0  0  0  0  0  0  0  0  0  0  0
    3.2853    7.4040    0.0000 H   0  0  0  0  0  0  0  0  0  0  0  0
    2.6324   10.4224    0.0000 H   0  0  0  0  0  0  0  0  0  0  0  0
    1.1711    9.6916    0.0000 H   0  0  0  0  0  0  0  0  0  0  0  0
    4.1592    7.5383    0.0000 H   0  0  0  0  0  0  0  0  0  0  0  0
    6.1037   10.6436    0.0000 H   0  0  0  0  0  0  0  0  0  0  0  0
    4.7972   11.8590    0.0000 H   0  0  0  0  0  0  0  0  0  0  0  0
    3.2529   10.9649    0.0000 H   0  0  0  0  0  0  0  0  0  0  0  0
    6.6050    9.4946    0.0000 H   0  0  0  0  0  0  0  0  0  0  0  0
    6.6071    7.7102    0.0000 H   0  0  0  0  0  0  0  0  0  0  0  0
    4.7326    7.2577    0.0000 H   0  0  0  0  0  0  0  0  0  0  0  0
    0.6638   10.9916    0.0000 H   0  0  0  0  0  0  0  0  0  0  0  0
   -0.2503   11.3663    0.0000 H   0  0  0  0  0  0  0  0  0  0  0  0
   -2.1733   13.4635    0.0000 H   0  0  0  0  0  0  0  0  0  0  0  0
   -3.1764   11.9877    0.0000 H   0  0  0  0  0  0  0  0  0  0  0  0
   -0.6332   14.4266    0.0000 H   0  0  0  0  0  0  0  0  0  0  0  0
   -4.1243   12.7841    0.0000 H   0  0  0  0  0  0  0  0  0  0  0  0
   -5.2775   12.6281    0.0000 H   0  0  0  0  0  0  0  0  0  0  0  0
   -8.0291   13.3527    0.0000 H   0  0  0  0  0  0  0  0  0  0  0  0
   -8.0751   11.5689    0.0000 H   0  0  0  0  0  0  0  0  0  0  0  0
   -3.7488   13.0240    0.0000 H   0  0  0  0  0  0  0  0  0  0  0  0
   -2.8099   15.7014    0.0000 H   0  0  0  0  0  0  0  0  0  0  0  0
   -4.6988   18.0321    0.0000 H   0  0  0  0  0  0  0  0  0  0  0  0
   -7.6617   17.5615    0.0000 H   0  0  0  0  0  0  0  0  0  0  0  0
   -8.7356   14.7603    0.0000 H   0  0  0  0  0  0  0  0  0  0  0  0
   -9.3031   11.7264    0.0000 H   0  0  0  0  0  0  0  0  0  0  0  0
  -10.1889   10.9716    0.0000 H   0  0  0  0  0  0  0  0  0  0  0  0
  -12.8954   10.0936    0.0000 H   0  0  0  0  0  0  0  0  0  0  0  0
  -11.9697    8.5681    0.0000 H   0  0  0  0  0  0  0  0  0  0  0  0
   -9.1169   12.1312    0.0000 H   0  0  0  0  0  0  0  0  0  0  0  0
   -9.7745   14.8912    0.0000 H   0  0  0  0  0  0  0  0  0  0  0  0
  -12.6237   15.8306    0.0000 H   0  0  0  0  0  0  0  0  0  0  0  0
  -14.8618   13.8329    0.0000 H   0  0  0  0  0  0  0  0  0  0  0  0
  -14.2508   10.8958    0.0000 H   0  0  0  0  0  0  0  0  0  0  0  0
  -13.1843    7.8809    0.0000 H   0  0  0  0  0  0  0  0  0  0  0  0
  -13.4250    6.9229    0.0000 H   0  0  0  0  0  0  0  0  0  0  0  0
  -14.9474    6.4834    0.0000 H   0  0  0  0  0  0  0  0  0  0  0  0
  -15.2272    4.7210    0.0000 H   0  0  0  0  0  0  0  0  0  0  0  0
  -13.6237    3.9381    0.0000 H   0  0  0  0  0  0  0  0  0  0  0  0
  -14.2771    2.8865    0.0000 H   0  0  0  0  0  0  0  0  0  0  0  0
  -13.8961    1.9395    0.0000 H   0  0  0  0  0  0  0  0  0  0  0  0
  -14.1200   -1.1406    0.0000 H   0  0  0  0  0  0  0  0  0  0  0  0
  -12.5119   -0.8511    0.0000 H   0  0  0  0  0  0  0  0  0  0  0  0
  -16.2625    1.3869    0.0000 H   0  0  0  0  0  0  0  0  0  0  0  0
  -14.7723    2.0568    0.0000 H   0  0  0  0  0  0  0  0  0  0  0  0
  -16.6018   -1.9091    0.0000 H   0  0  0  0  0  0  0  0  0  0  0  0
  -14.8681   -1.4863    0.0000 H   0  0  0  0  0  0  0  0  0  0  0  0
  -17.9271    1.2388    0.0000 H   0  0  0  0  0  0  0  0  0  0  0  0
  -20.9842   -2.0633    0.0000 H   0  0  0  0  0  0  0  0  0  0  0  0
  -20.4089    0.4703    0.0000 H   0  0  0  0  0  0  0  0  0  0  0  0
  -19.0778   -3.8283    0.0000 H   0  0  0  0  0  0  0  0  0  0  0  0
  -16.5960   -3.0598    0.0000 H   0  0  0  0  0  0  0  0  0  0  0  0
  -12.4931   -2.0890    0.0000 H   0  0  0  0  0  0  0  0  0  0  0  0
   -8.9513   -4.8281    0.0000 H   0  0  0  0  0  0  0  0  0  0  0  0
  -10.1019   -4.3164    0.0000 H   0  0  0  0  0  0  0  0  0  0  0  0
   -7.4955   -5.4694    0.0000 H   0  0  0  0  0  0  0  0  0  0  0  0
   -8.5408   -5.1584    0.0000 H   0  0  0  0  0  0  0  0  0  0  0  0
   -5.5904   -5.7371    0.0000 H   0  0  0  0  0  0  0  0  0  0  0  0
   -7.0065   -5.5969    0.0000 H   0  0  0  0  0  0  0  0  0  0  0  0
   -4.6256   -5.9491    0.0000 H   0  0  0  0  0  0  0  0  0  0  0  0
  -12.3174   -4.1864    0.0000 H   0  0  0  0  0  0  0  0  0  0  0  0
  -13.1169   -2.7615    0.0000 H   0  0  0  0  0  0  0  0  0  0  0  0
  -12.1404   -1.4515    0.0000 H   0  0  0  0  0  0  0  0  0  0  0  0
  -13.1097   -3.6074    0.0000 H   0  0  0  0  0  0  0  0  0  0  0  0
  -10.6148   -5.9044    0.0000 H   0  0  0  0  0  0  0  0  0  0  0  0
  -11.1076   -8.6801    0.0000 H   0  0  0  0  0  0  0  0  0  0  0  0
  -10.4459   -6.8688    0.0000 H   0  0  0  0  0  0  0  0  0  0  0  0
  -12.9069   -9.1055    0.0000 H   0  0  0  0  0  0  0  0  0  0  0  0
  -15.4560   -6.9248    0.0000 H   0  0  0  0  0  0  0  0  0  0  0  0
  -18.1062   -7.8859    0.0000 H   0  0  0  0  0  0  0  0  0  0  0  0
  -16.4351   -6.9237    0.0000 H   0  0  0  0  0  0  0  0  0  0  0  0
  -17.7110  -11.1756    0.0000 H   0  0  0  0  0  0  0  0  0  0  0  0
  -16.4465  -10.8147    0.0000 H   0  0  0  0  0  0  0  0  0  0  0  0
  -21.2003  -10.9934    0.0000 H   0  0  0  0  0  0  0  0  0  0  0  0
  -19.5139  -12.5250    0.0000 H   0  0  0  0  0  0  0  0  0  0  0  0
  -18.2170   -9.7316    0.0000 H   0  0  0  0  0  0  0  0  0  0  0  0
  -15.6318  -11.8693    0.0000 H   0  0  0  0  0  0  0  0  0  0  0  0
  -15.5358  -12.6656    0.0000 H   0  0  0  0  0  0  0  0  0  0  0  0
  -17.9465  -15.8059    0.0000 H   0  0  0  0  0  0  0  0  0  0  0  0
  -19.4334  -14.8193    0.0000 H   0  0  0  0  0  0  0  0  0  0  0  0
  -19.2945  -13.5117    0.0000 H   0  0  0  0  0  0  0  0  0  0  0  0
  -15.8658  -16.1225    0.0000 H   0  0  0  0  0  0  0  0  0  0  0  0
  -17.4618  -15.3244    0.0000 H   0  0  0  0  0  0  0  0  0  0  0  0
  -13.8761  -15.9466    0.0000 H   0  0  0  0  0  0  0  0  0  0  0  0
  -13.2144  -14.1353    0.0000 H   0  0  0  0  0  0  0  0  0  0  0  0
  -14.7013  -13.1487    0.0000 H   0  0  0  0  0  0  0  0  0  0  0  0
  1  2  1  0
  2  3  1  0
  3  4  2  0
  4  5  1  0
  5  6  2  0
  6  7  1  0
  7  8  2  0
  7  9  1  0
  9 10  1  0
 10 11  1  0
 11 12  2  0
  9 13  1  0
 13 14  1  0
 14 15  2  0
 15 16  1  0
 16 17  2  0
 17 18  1  0
 16 19  1  0
 14 20  1  0
 20 21  1  0
 21 22  2  0
 22 23  1  0
 23 24  2  0
 24 25  1  0
 25 26  2  0
 25 27  1  0
  1 28  2  0
  1 29  1  0
 29 30  1  0
 30 31  1  0
 31 32  1  0
 32 33  2  0
 32 34  1  0
 34 35  1  0
 35 36  1  0
 36 37  1  0
 37 38  1  0
 37 39  2  0
 35 40  1  0
 40 41  2  0
 40 42  1  0
 42 43  1  0
 43 44  1  0
 44 45  1  0
 45 46  1  0
 46 47  1  0
 46 48  2  0
 43 49  1  0
 49 50  2  0
 49 51  1  0
 51 52  1  0
 52 53  1  0
 53 54  1  0
 54 55  1  0
 54 56  1  0
 52 57  1  0
 57 58  2  0
 57 59  1  0
 60 59  1  6
 60 61  1  0
 61 62  1  0
 62 63  1  0
 63 64  1  0
 64 65  1  0
 65 66  1  0
 66 67  1  0
 60 68  1  0
 60 69  1  0
 69 70  2  0
 69 71  1  0
 71 72  1  0
 72 73  1  0
 73 74  1  0
 74 75  1  0
 74 76  1  0
 72 77  1  0
 77 78  2  0
 77 79  1  0
 79 80  1  0
 80 81  1  0
 81 82  1  0
 80 83  1  0
 83 84  2  0
 83 85  1  0
 85 86  1  0
 86 87  1  0
 87 88  1  0
 88 89  2  0
 89 90  1  0
 90 91  2  0
 91 92  1  0
 92 93  2  0
 86 94  1  0
 94 95  2  0
 94 96  1  0
 96 97  1  0
 97 98  1  0
 98 99  1  0
 99100  2  0
100101  1  0
101102  2  0
102103  1  0
103104  2  0
 97105  1  0
105106  2  0
105107  1  0
107108  1  0
108109  1  0
108110  1  0
110111  2  0
110112  1  0
112113  1  0
113114  1  0
114115  1  0
115116  1  0
116117  1  0
117118  1  0
118119  2  3
118120  1  0
113121  1  0
121122  2  0
121123  1  0
123124  1  0
124125  1  0
125126  1  0
126127  1  0
127128  1  0
124129  1  0
124130  1  1
130131  2  0
130132  1  0
132133  1  0
133134  1  0
134135  1  0
135136  2  0
135137  1  0
133138  1  0
138139  2  0
138140  1  0
140141  1  0
141142  1  0
142143  1  0
143144  1  0
144145  1  0
144146  2  0
141147  1  0
147148  2  0
147149  1  0
149150  1  0
150151  1  0
151152  1  0
151153  1  0
153154  1  0
150155  1  0
155156  2  0
155157  1  0
  8  3  1  0
 93 88  1  0
104 99  1  0
 11  6  1  0
 18 13  2  0
 67128  2  0
 22  9  1  0
 26 21  1  0
  2158  1  0
  4159  1  0
  5160  1  0
  8161  1  0
 15162  1  0
 17163  1  0
 18164  1  0
 19165  1  0
 23166  1  0
 24167  1  0
 26168  1  0
 27169  1  0
 29170  1  0
 30171  1  0
 30172  1  0
 31173  1  0
 31174  1  0
 34175  1  0
 35176  1  1
 36177  1  0
 36178  1  0
 38179  1  0
 38180  1  0
 42181  1  0
 43182  1  1
 44183  1  0
 44184  1  0
 45185  1  0
 45186  1  0
 47187  1  0
 47188  1  0
 51189  1  0
 52190  1  1
 53191  1  0
 53192  1  0
 54193  1  0
 55194  1  0
 55195  1  0
 55196  1  0
 56197  1  0
 56198  1  0
 56199  1  0
 59200  1  0
 61201  1  0
 61202  1  0
 62203  1  0
 62204  1  0
 63205  1  0
 63206  1  0
 64207  1  0
 64208  1  0
 65209  1  0
 65210  1  0
 66211  1  0
 66212  1  0
 67213  1  0
 68214  1  0
 68215  1  0
 68216  1  0
 71217  1  0
 72218  1  6
 73219  1  0
 73220  1  0
 74221  1  0
 75222  1  0
 75223  1  0
 75224  1  0
 76225  1  0
 76226  1  0
 76227  1  0
 79228  1  0
 80229  1  6
 81230  1  0
 81231  1  0
 82232  1  0
 85233  1  0
 86234  1  6
 87235  1  0
 87236  1  0
 89237  1  0
 90238  1  0
 91239  1  0
 92240  1  0
 93241  1  0
 96242  1  0
 97243  1  6
 98244  1  0
 98245  1  0
100246  1  0
101247  1  0
102248  1  0
103249  1  0
104250  1  0
107251  1  0
108252  1  6
109253  1  0
109254  1  0
109255  1  0
112256  1  0
113257  1  6
114258  1  0
114259  1  0
115260  1  0
115261  1  0
116262  1  0
116263  1  0
117264  1  0
119265  1  0
119266  1  0
120267  1  0
120268  1  0
123269  1  0
125270  1  0
125271  1  0
126272  1  0
126273  1  0
127274  1  0
127275  1  0
128276  1  0
129277  1  0
129278  1  0
129279  1  0
132280  1  0
133281  1  1
134282  1  0
134283  1  0
140284  1  0
141285  1  6
142286  1  0
142287  1  0
143288  1  0
143289  1  0
145290  1  0
145291  1  0
149292  1  0
150293  1  1
151294  1  1
152295  1  0
152296  1  0
152297  1  0
153298  1  0
153299  1  0
154300  1  0
154301  1  0
154302  1  0
M  CHG  3 119   1 137  -1 157  -1
M  END
