
     RDKit          2D

371377  0  0  0  0  0  0  0  0999 V2000
   24.1726    3.9450    0.0000 C   0  0  0  0  0  0  0  0  0  0  0  0
   24.1929    5.4449    0.0000 N   0  0  0  0  0  0  0  0  0  0  0  0
   25.5020    6.1772    0.0000 C   0  0  0  0  0  0  0  0  0  0  0  0
   26.7908    5.4097    0.0000 C   0  0  0  0  0  0  0  0  0  0  0  0
   28.0998    6.1421    0.0000 C   0  0  0  0  0  0  0  0  0  0  0  0
   28.1201    7.6420    0.0000 C   0  0  0  0  0  0  0  0  0  0  0  0
   26.8313    8.4095    0.0000 C   0  0  0  0  0  0  0  0  0  0  0  0
   25.5222    7.6771    0.0000 C   0  0  0  0  0  0  0  0  0  0  0  0
   27.1630    9.8723    0.0000 C   0  0  0  0  0  0  0  0  0  0  0  0
   28.6567   10.0090    0.0000 O   0  0  0  0  0  0  0  0  0  0  0  0
   29.2483    8.6305    0.0000 C   0  0  0  0  0  0  0  0  0  0  0  0
   30.7111    8.2989    0.0000 O   0  0  0  0  0  0  0  0  0  0  0  0
   27.6457   11.2925    0.0000 C   0  0  0  0  0  0  0  0  0  0  0  0
   26.6572   12.4207    0.0000 C   0  0  0  0  0  0  0  0  0  0  0  0
   27.1400   13.8409    0.0000 C   0  0  0  0  0  0  0  0  0  0  0  0
   28.6113   14.1329    0.0000 C   0  0  0  0  0  0  0  0  0  0  0  0
   29.5998   13.0047    0.0000 C   0  0  0  0  0  0  0  0  0  0  0  0
   29.1170   11.5845    0.0000 C   0  0  0  0  0  0  0  0  0  0  0  0
   29.0940   15.5531    0.0000 O   0  0  0  0  0  0  0  0  0  0  0  0
   25.1859   12.1287    0.0000 O   0  0  0  0  0  0  0  0  0  0  0  0
   24.7031   10.7085    0.0000 C   0  0  0  0  0  0  0  0  0  0  0  0
   25.6917    9.5803    0.0000 C   0  0  0  0  0  0  0  0  0  0  0  0
   24.7476    8.6866    0.0000 C   0  0  0  0  0  0  0  0  0  0  0  0
   23.9629    8.5309    0.0000 C   0  0  0  0  0  0  0  0  0  0  0  0
   23.4357    9.1326    0.0000 C   0  0  0  0  0  0  0  0  0  0  0  0
   23.6931    9.8900    0.0000 C   0  0  0  0  0  0  0  0  0  0  0  0
   21.2778    8.7043    0.0000 O   0  0  0  0  0  0  0  0  0  0  0  0
   25.4614    3.1775    0.0000 S   0  0  0  0  0  0  0  0  0  0  0  0
   22.8636    3.2126    0.0000 N   0  0  0  0  0  0  0  0  0  0  0  0
   22.8433    1.7128    0.0000 C   0  0  0  0  0  0  0  0  0  0  0  0
   21.5343    0.9804    0.0000 C   0  0  0  0  0  0  0  0  0  0  0  0
   21.5140   -0.5195    0.0000 C   0  0  0  0  0  0  0  0  0  0  0  0
   22.2772   -0.7495    0.0000 O   0  0  0  0  0  0  0  0  0  0  0  0
   20.2049   -1.2518    0.0000 N   0  0  0  0  0  0  0  0  0  0  0  0
   20.1846   -2.7517    0.0000 C   0  0  0  0  0  0  0  0  0  0  0  0
   21.6652   -2.5112    0.0000 C   0  0  0  0  0  0  0  0  0  0  0  0
   22.1973   -1.1088    0.0000 C   0  0  0  0  0  0  0  0  0  0  0  0
   23.6779   -0.8683    0.0000 C   0  0  0  0  0  0  0  0  0  0  0  0
   24.3769    0.4589    0.0000 O   0  0  0  0  0  0  0  0  0  0  0  0
   24.6264   -2.0303    0.0000 O   0  0  0  0  0  0  0  0  0  0  0  0
   19.6526   -4.1542    0.0000 C   0  0  0  0  0  0  0  0  0  0  0  0
   20.8542   -5.0521    0.0000 O   0  0  0  0  0  0  0  0  0  0  0  0
   18.1720   -4.3947    0.0000 N   0  0  0  0  0  0  0  0  0  0  0  0
   17.6400   -5.7971    0.0000 C   0  0  0  0  0  0  0  0  0  0  0  0
   19.1135   -6.0776    0.0000 C   0  0  0  0  0  0  0  0  0  0  0  0
   20.0932   -4.9416    0.0000 C   0  0  0  0  0  0  0  0  0  0  0  0
   21.5667   -5.2220    0.0000 C   0  0  0  0  0  0  0  0  0  0  0  0
   22.6775   -4.2140    0.0000 O   0  0  0  0  0  0  0  0  0  0  0  0
   22.0606   -6.6384    0.0000 O   0  0  0  0  0  0  0  0  0  0  0  0
   16.6604   -6.9331    0.0000 C   0  0  0  0  0  0  0  0  0  0  0  0
   17.4823   -8.1878    0.0000 O   0  0  0  0  0  0  0  0  0  0  0  0
   15.1868   -6.6527    0.0000 N   0  0  0  0  0  0  0  0  0  0  0  0
   14.2072   -7.7886    0.0000 C   0  0  0  0  0  0  0  0  0  0  0  0
   15.4960   -8.5561    0.0000 C   0  0  0  0  0  0  0  0  0  0  0  0
   16.8050   -7.8237    0.0000 C   0  0  0  0  0  0  0  0  0  0  0  0
   18.0938   -8.5912    0.0000 N   0  0  0  0  0  0  0  0  0  0  0  0
   17.1876   -6.3733    0.0000 O   0  0  0  0  0  0  0  0  0  0  0  0
   12.8981   -8.5210    0.0000 C   0  0  0  0  0  0  0  0  0  0  0  0
   13.0608  -10.0121    0.0000 O   0  0  0  0  0  0  0  0  0  0  0  0
   11.6093   -7.7535    0.0000 N   0  0  0  0  0  0  0  0  0  0  0  0
   10.3003   -8.4858    0.0000 C   0  0  0  0  0  0  0  0  0  0  0  0
   11.2488   -9.6478    0.0000 C   0  0  0  0  0  0  0  0  0  0  0  0
    8.8197   -8.7263    0.0000 C   0  0  0  0  0  0  0  0  0  0  0  0
    8.6428  -10.2159    0.0000 O   0  0  0  0  0  0  0  0  0  0  0  0
    7.8711   -7.5643    0.0000 N   0  0  0  0  0  0  0  0  0  0  0  0
    6.3905   -7.8048    0.0000 C   0  0  0  0  0  0  0  0  0  0  0  0
    6.8845   -9.2212    0.0000 C   0  0  0  0  0  0  0  0  0  0  0  0
    8.3580   -9.5016    0.0000 C   0  0  0  0  0  0  0  0  0  0  0  0
    8.8519  -10.9179    0.0000 C   0  0  0  0  0  0  0  0  0  0  0  0
   10.3255  -11.1983    0.0000 C   0  0  0  0  0  0  0  0  0  0  0  0
   10.8194  -12.6147    0.0000 N   0  0  0  0  0  0  0  0  0  0  0  0
    4.9170   -7.5244    0.0000 C   0  0  0  0  0  0  0  0  0  0  0  0
    4.2413   -8.8636    0.0000 O   0  0  0  0  0  0  0  0  0  0  0  0
    4.4230   -6.1081    0.0000 N   0  0  0  0  0  0  0  0  0  0  0  0
    2.9495   -5.8276    0.0000 C   0  0  0  0  0  0  0  0  0  0  0  0
    2.9292   -7.3275    0.0000 C   0  0  0  0  0  0  0  0  0  0  0  0
    4.2180   -8.0950    0.0000 C   0  0  0  0  0  0  0  0  0  0  0  0
    4.1977   -9.5949    0.0000 C   0  0  0  0  0  0  0  0  0  0  0  0
    5.4865  -10.3623    0.0000 N   0  0  0  0  0  0  0  0  0  0  0  0
    5.4662  -11.8622    0.0000 C   0  0  0  0  0  0  0  0  0  0  0  0
    6.7550  -12.6297    0.0000 N   0  0  0  0  0  0  0  0  0  0  0  0
    4.1572  -12.5946    0.0000 N   0  0  0  0  0  0  0  0  0  0  0  0
    1.6607   -5.0602    0.0000 C   0  0  0  0  0  0  0  0  0  0  0  0
    0.5678   -6.0875    0.0000 O   0  0  0  0  0  0  0  0  0  0  0  0
    1.6810   -3.5603    0.0000 N   0  0  0  0  0  0  0  0  0  0  0  0
    0.3922   -2.7928    0.0000 C   0  0  0  0  0  0  0  0  0  0  0  0
   -0.1398   -4.1953    0.0000 C   0  0  0  0  0  0  0  0  0  0  0  0
    0.8087   -5.3573    0.0000 C   0  0  0  0  0  0  0  0  0  0  0  0
    0.2767   -6.7597    0.0000 C   0  0  0  0  0  0  0  0  0  0  0  0
    1.2252   -7.9217    0.0000 N   0  0  0  0  0  0  0  0  0  0  0  0
    0.6932   -9.3242    0.0000 C   0  0  0  0  0  0  0  0  0  0  0  0
    1.6418  -10.4862    0.0000 N   0  0  0  0  0  0  0  0  0  0  0  0
   -0.7874   -9.5647    0.0000 N   0  0  0  0  0  0  0  0  0  0  0  0
   -0.5564   -1.6308    0.0000 C   0  0  0  0  0  0  0  0  0  0  0  0
   -1.9348   -2.2224    0.0000 O   0  0  0  0  0  0  0  0  0  0  0  0
   -0.0243   -0.2283    0.0000 N   0  0  0  0  0  0  0  0  0  0  0  0
   -0.9729    0.9337    0.0000 C   0  0  0  0  0  0  0  0  0  0  0  0
   -1.5928   -0.4322    0.0000 C   0  0  0  0  0  0  0  0  0  0  0  0
   -2.4600   -1.6562    0.0000 C   0  0  0  0  0  0  0  0  0  0  0  0
   -3.5432   -2.6938    0.0000 C   0  0  0  0  0  0  0  0  0  0  0  0
   -4.8032   -3.5077    0.0000 C   0  0  0  0  0  0  0  0  0  0  0  0
   -6.1944   -4.0685    0.0000 C   0  0  0  0  0  0  0  0  0  0  0  0
   -7.6666   -4.3558    0.0000 C   0  0  0  0  0  0  0  0  0  0  0  0
   -9.1666   -4.3594    0.0000 C   0  0  0  0  0  0  0  0  0  0  0  0
    0.4895    1.2676    0.0000 C   0  0  0  0  0  0  0  0  0  0  0  0
   -0.6227    2.3922    0.0000 C   0  0  0  0  0  0  0  0  0  0  0  0
    0.8771    2.3648    0.0000 O   0  0  0  0  0  0  0  0  0  0  0  0
   -0.5548    3.8907    0.0000 N   0  0  0  0  0  0  0  0  0  0  0  0
   -0.7718    5.3749    0.0000 C   0  0  0  0  0  0  0  0  0  0  0  0
    0.2779    6.4464    0.0000 C   0  0  0  0  0  0  0  0  0  0  0  0
    1.7307    6.0731    0.0000 C   0  0  0  0  0  0  0  0  0  0  0  0
    2.8867    7.0290    0.0000 C   0  0  0  0  0  0  0  0  0  0  0  0
    4.1530    6.2250    0.0000 N   0  0  0  0  0  0  0  0  0  0  0  0
    3.7797    4.7722    0.0000 C   0  0  0  0  0  0  0  0  0  0  0  0
    2.2826    4.6783    0.0000 N   0  0  0  0  0  0  0  0  0  0  0  0
   -1.2657    6.7912    0.0000 C   0  0  0  0  0  0  0  0  0  0  0  0
    0.0107    7.5790    0.0000 O   0  0  0  0  0  0  0  0  0  0  0  0
   -2.0188    8.0885    0.0000 N   0  0  0  0  0  0  0  0  0  0  0  0
   -3.0037    9.2198    0.0000 C   0  0  0  0  0  0  0  0  0  0  0  0
   -2.7000   10.6887    0.0000 C   0  0  0  0  0  0  0  0  0  0  0  0
   -1.2760   11.1601    0.0000 C   0  0  0  0  0  0  0  0  0  0  0  0
   -0.9722   12.6291    0.0000 N   0  0  0  0  0  0  0  0  0  0  0  0
   -0.1557   10.1626    0.0000 O   0  0  0  0  0  0  0  0  0  0  0  0
   -4.1850   10.1443    0.0000 C   0  0  0  0  0  0  0  0  0  0  0  0
   -3.5371   11.4971    0.0000 O   0  0  0  0  0  0  0  0  0  0  0  0
   -5.5199   10.8285    0.0000 N   0  0  0  0  0  0  0  0  0  0  0  0
   -6.9601   11.2477    0.0000 C   0  0  0  0  0  0  0  0  0  0  0  0
   -7.4987   12.6477    0.0000 C   0  0  0  0  0  0  0  0  0  0  0  0
   -8.4536   11.3868    0.0000 C   0  0  0  0  0  0  0  0  0  0  0  0
   -8.6400   12.8752    0.0000 O   0  0  0  0  0  0  0  0  0  0  0  0
   -9.9465   11.2407    0.0000 N   0  0  0  0  0  0  0  0  0  0  0  0
  -11.3847   10.8147    0.0000 C   0  0  0  0  0  0  0  0  0  0  0  0
  -12.5947   11.7012    0.0000 C   0  0  0  0  0  0  0  0  0  0  0  0
  -12.4320   13.1924    0.0000 C   0  0  0  0  0  0  0  0  0  0  0  0
  -13.6420   14.0789    0.0000 C   0  0  0  0  0  0  0  0  0  0  0  0
  -11.7690   14.5379    0.0000 C   0  0  0  0  0  0  0  0  0  0  0  0
  -12.7164   10.1242    0.0000 C   0  0  0  0  0  0  0  0  0  0  0  0
  -13.6778   11.2756    0.0000 O   0  0  0  0  0  0  0  0  0  0  0  0
  -13.8933    9.1942    0.0000 N   0  0  0  0  0  0  0  0  0  0  0  0
  -14.8729    8.0583    0.0000 C   0  0  0  0  0  0  0  0  0  0  0  0
  -16.3701    8.1499    0.0000 C   0  0  0  0  0  0  0  0  0  0  0  0
  -17.0393    9.4923    0.0000 C   0  0  0  0  0  0  0  0  0  0  0  0
  -18.5365    9.5840    0.0000 C   0  0  0  0  0  0  0  0  0  0  0  0
  -19.2058   10.9264    0.0000 O   0  0  0  0  0  0  0  0  0  0  0  0
  -19.3645    8.3332    0.0000 O   0  0  0  0  0  0  0  0  0  0  0  0
  -15.6198    6.7575    0.0000 C   0  0  0  0  0  0  0  0  0  0  0  0
  -17.0511    7.2063    0.0000 O   0  0  0  0  0  0  0  0  0  0  0  0
  -16.1071    5.3389    0.0000 N   0  0  0  0  0  0  0  0  0  0  0  0
  -16.3171    3.8536    0.0000 C   0  0  0  0  0  0  0  0  0  0  0  0
  -17.6261    3.1213    0.0000 C   0  0  0  0  0  0  0  0  0  0  0  0
  -18.9149    3.8887    0.0000 C   0  0  0  0  0  0  0  0  0  0  0  0
  -20.2240    3.1564    0.0000 C   0  0  0  0  0  0  0  0  0  0  0  0
  -21.5128    3.9239    0.0000 N   0  0  0  0  0  0  0  0  0  0  0  0
  -22.8218    3.1915    0.0000 C   0  0  0  0  0  0  0  0  0  0  0  0
  -24.1106    3.9590    0.0000 N   0  0  0  0  0  0  0  0  0  0  0  0
  -22.8421    1.6916    0.0000 N   0  0  0  0  0  0  0  0  0  0  0  0
  -16.2422    2.3555    0.0000 C   0  0  0  0  0  0  0  0  0  0  0  0
  -17.6889    1.9592    0.0000 O   0  0  0  0  0  0  0  0  0  0  0  0
  -15.8851    0.8986    0.0000 N   0  0  0  0  0  0  0  0  0  0  0  0
  -15.2588   -0.4644    0.0000 C   0  0  0  0  0  0  0  0  0  0  0  0
  -14.3858   -1.6842    0.0000 C   0  0  0  0  0  0  0  0  0  0  0  0
  -13.2978   -2.7167    0.0000 C   0  0  0  0  0  0  0  0  0  0  0  0
  -12.0340   -3.5247    0.0000 C   0  0  0  0  0  0  0  0  0  0  0  0
  -10.6402   -4.0790    0.0000 C   0  0  0  0  0  0  0  0  0  0  0  0
  -16.7582   -0.4203    0.0000 C   0  0  0  0  0  0  0  0  0  0  0  0
  -15.9641   -1.7882    0.0000 C   0  0  0  0  0  0  0  0  0  0  0  0
  -15.5018   -3.2152    0.0000 O   0  0  0  0  0  0  0  0  0  0  0  0
  -17.4632   -1.8393    0.0000 N   0  0  0  0  0  0  0  0  0  0  0  0
  -18.1685   -3.1632    0.0000 C   0  0  0  0  0  0  0  0  0  0  0  0
  -18.3785   -4.6484    0.0000 C   0  0  0  0  0  0  0  0  0  0  0  0
  -19.7697   -5.2092    0.0000 C   0  0  0  0  0  0  0  0  0  0  0  0
  -19.9797   -6.6944    0.0000 C   0  0  0  0  0  0  0  0  0  0  0  0
  -21.3710   -7.2552    0.0000 N   0  0  0  0  0  0  0  0  0  0  0  0
  -21.5809   -8.7404    0.0000 C   0  0  0  0  0  0  0  0  0  0  0  0
  -22.9722   -9.3011    0.0000 N   0  0  0  0  0  0  0  0  0  0  0  0
  -20.3997   -9.6648    0.0000 N   0  0  0  0  0  0  0  0  0  0  0  0
  -19.6677   -3.2143    0.0000 C   0  0  0  0  0  0  0  0  0  0  0  0
  -20.4615   -1.9416    0.0000 O   0  0  0  0  0  0  0  0  0  0  0  0
  -20.3730   -4.5381    0.0000 N   0  0  0  0  0  0  0  0  0  0  0  0
  -21.8721   -4.5892    0.0000 C   0  0  0  0  0  0  0  0  0  0  0  0
  -23.2983   -4.1245    0.0000 C   0  0  0  0  0  0  0  0  0  0  0  0
  -23.6089   -2.6571    0.0000 C   0  0  0  0  0  0  0  0  0  0  0  0
  -25.0351   -2.1924    0.0000 C   0  0  0  0  0  0  0  0  0  0  0  0
  -25.3458   -0.7249    0.0000 N   0  0  0  0  0  0  0  0  0  0  0  0
  -26.7720   -0.2602    0.0000 C   0  0  0  0  0  0  0  0  0  0  0  0
  -27.0827    1.2073    0.0000 N   0  0  0  0  0  0  0  0  0  0  0  0
  -27.8875   -1.2630    0.0000 N   0  0  0  0  0  0  0  0  0  0  0  0
  -22.5774   -5.9131    0.0000 C   0  0  0  0  0  0  0  0  0  0  0  0
  -24.0591   -6.1465    0.0000 O   0  0  0  0  0  0  0  0  0  0  0  0
  -22.1151   -7.3401    0.0000 O   0  0  0  0  0  0  0  0  0  0  0  0
   22.8202    6.0495    0.0000 H   0  0  0  0  0  0  0  0  0  0  0  0
   26.7705    3.9099    0.0000 H   0  0  0  0  0  0  0  0  0  0  0  0
   29.3886    5.3746    0.0000 H   0  0  0  0  0  0  0  0  0  0  0  0
   24.0860    8.1099    0.0000 H   0  0  0  0  0  0  0  0  0  0  0  0
   26.1514   14.9691    0.0000 H   0  0  0  0  0  0  0  0  0  0  0  0
   31.0711   13.2967    0.0000 H   0  0  0  0  0  0  0  0  0  0  0  0
   30.1056   10.4564    0.0000 H   0  0  0  0  0  0  0  0  0  0  0  0
   30.5653   15.8451    0.0000 H   0  0  0  0  0  0  0  0  0  0  0  0
   26.1974    7.0320    0.0000 H   0  0  0  0  0  0  0  0  0  0  0  0
   23.0853    6.5174    0.0000 H   0  0  0  0  0  0  0  0  0  0  0  0
   22.2433   11.5447    0.0000 H   0  0  0  0  0  0  0  0  0  0  0  0
   20.2892    9.8325    0.0000 H   0  0  0  0  0  0  0  0  0  0  0  0
   21.5748    3.9801    0.0000 H   0  0  0  0  0  0  0  0  0  0  0  0
   24.3239    1.9532    0.0000 H   0  0  0  0  0  0  0  0  0  0  0  0
   23.5062    0.3672    0.0000 H   0  0  0  0  0  0  0  0  0  0  0  0
   21.0403    2.3967    0.0000 H   0  0  0  0  0  0  0  0  0  0  0  0
   20.0537    0.7399    0.0000 H   0  0  0  0  0  0  0  0  0  0  0  0
   18.9161   -0.4844    0.0000 H   0  0  0  0  0  0  0  0  0  0  0  0
   18.7111   -2.4713    0.0000 H   0  0  0  0  0  0  0  0  0  0  0  0
   23.1388   -2.7916    0.0000 H   0  0  0  0  0  0  0  0  0  0  0  0
   21.8279   -4.0024    0.0000 H   0  0  0  0  0  0  0  0  0  0  0  0
   22.2176    0.3911    0.0000 H   0  0  0  0  0  0  0  0  0  0  0  0
   20.8354   -0.4801    0.0000 H   0  0  0  0  0  0  0  0  0  0  0  0
   17.2235   -3.2327    0.0000 H   0  0  0  0  0  0  0  0  0  0  0  0
   16.3512   -5.0297    0.0000 H   0  0  0  0  0  0  0  0  0  0  0  0
   20.4023   -6.8450    0.0000 H   0  0  0  0  0  0  0  0  0  0  0  0
   18.7564   -7.5344    0.0000 H   0  0  0  0  0  0  0  0  0  0  0  0
   20.6252   -3.5392    0.0000 H   0  0  0  0  0  0  0  0  0  0  0  0
   19.0284   -3.8851    0.0000 H   0  0  0  0  0  0  0  0  0  0  0  0
   14.6929   -5.2363    0.0000 H   0  0  0  0  0  0  0  0  0  0  0  0
   13.2586   -6.6266    0.0000 H   0  0  0  0  0  0  0  0  0  0  0  0
   16.4445   -9.7181    0.0000 H   0  0  0  0  0  0  0  0  0  0  0  0
   14.5163   -9.6920    0.0000 H   0  0  0  0  0  0  0  0  0  0  0  0
   19.4824   -8.0239    0.0000 H   0  0  0  0  0  0  0  0  0  0  0  0
   18.0735  -10.0911    0.0000 H   0  0  0  0  0  0  0  0  0  0  0  0
   11.6296   -6.2536    0.0000 H   0  0  0  0  0  0  0  0  0  0  0  0
    9.8063   -7.0695    0.0000 H   0  0  0  0  0  0  0  0  0  0  0  0
   12.7477   -9.5896    0.0000 H   0  0  0  0  0  0  0  0  0  0  0  0
   11.9117  -10.9934    0.0000 H   0  0  0  0  0  0  0  0  0  0  0  0
    9.8603  -10.2152    0.0000 H   0  0  0  0  0  0  0  0  0  0  0  0
    8.4032   -6.1619    0.0000 H   0  0  0  0  0  0  0  0  0  0  0  0
    6.4108   -6.3050    0.0000 H   0  0  0  0  0  0  0  0  0  0  0  0
    6.6815  -10.7074    0.0000 H   0  0  0  0  0  0  0  0  0  0  0  0
    5.5060   -9.8128    0.0000 H   0  0  0  0  0  0  0  0  0  0  0  0
    9.7983   -9.0824    0.0000 H   0  0  0  0  0  0  0  0  0  0  0  0
    8.7406   -8.0512    0.0000 H   0  0  0  0  0  0  0  0  0  0  0  0
    8.6490  -12.4041    0.0000 H   0  0  0  0  0  0  0  0  0  0  0  0
    7.4117  -11.3371    0.0000 H   0  0  0  0  0  0  0  0  0  0  0  0
   11.8244  -11.1401    0.0000 H   0  0  0  0  0  0  0  0  0  0  0  0
   10.3458   -9.6985    0.0000 H   0  0  0  0  0  0  0  0  0  0  0  0
   12.2930  -12.8951    0.0000 H   0  0  0  0  0  0  0  0  0  0  0  0
   10.7992  -14.1145    0.0000 H   0  0  0  0  0  0  0  0  0  0  0  0
    9.3792  -13.0338    0.0000 H   0  0  0  0  0  0  0  0  0  0  0  0
    5.4027   -4.9721    0.0000 H   0  0  0  0  0  0  0  0  0  0  0  0
    3.4815   -4.4252    0.0000 H   0  0  0  0  0  0  0  0  0  0  0  0
    2.2302   -8.6547    0.0000 H   0  0  0  0  0  0  0  0  0  0  0  0
    1.4316   -7.4120    0.0000 H   0  0  0  0  0  0  0  0  0  0  0  0
    5.6915   -8.3754    0.0000 H   0  0  0  0  0  0  0  0  0  0  0  0
    5.0736   -6.8629    0.0000 H   0  0  0  0  0  0  0  0  0  0  0  0
    3.6657  -10.9973    0.0000 H   0  0  0  0  0  0  0  0  0  0  0  0
    2.7010   -9.4962    0.0000 H   0  0  0  0  0  0  0  0  0  0  0  0
    6.9339   -9.9685    0.0000 H   0  0  0  0  0  0  0  0  0  0  0  0
    6.7347  -14.1296    0.0000 H   0  0  0  0  0  0  0  0  0  0  0  0
    8.0641  -11.8973    0.0000 H   0  0  0  0  0  0  0  0  0  0  0  0
    4.1369  -14.0944    0.0000 H   0  0  0  0  0  0  0  0  0  0  0  0
    2.8684  -11.8271    0.0000 H   0  0  0  0  0  0  0  0  0  0  0  0
    2.9900   -2.8279    0.0000 H   0  0  0  0  0  0  0  0  0  0  0  0
    1.3718   -1.6569    0.0000 H   0  0  0  0  0  0  0  0  0  0  0  0
   -1.2506   -5.2033    0.0000 H   0  0  0  0  0  0  0  0  0  0  0  0
   -1.4286   -3.4278    0.0000 H   0  0  0  0  0  0  0  0  0  0  0  0
    2.0975   -6.1248    0.0000 H   0  0  0  0  0  0  0  0  0  0  0  0
    2.0341   -4.4921    0.0000 H   0  0  0  0  0  0  0  0  0  0  0  0
   -0.7029   -7.8957    0.0000 H   0  0  0  0  0  0  0  0  0  0  0  0
   -1.0960   -6.1551    0.0000 H   0  0  0  0  0  0  0  0  0  0  0  0
    2.7200   -8.0467    0.0000 H   0  0  0  0  0  0  0  0  0  0  0  0
    1.1097  -11.8887    0.0000 H   0  0  0  0  0  0  0  0  0  0  0  0
    3.1224  -10.2457    0.0000 H   0  0  0  0  0  0  0  0  0  0  0  0
   -1.3194  -10.9672    0.0000 H   0  0  0  0  0  0  0  0  0  0  0  0
   -1.7359   -8.4027    0.0000 H   0  0  0  0  0  0  0  0  0  0  0  0
    1.4745   -0.1701    0.0000 H   0  0  0  0  0  0  0  0  0  0  0  0
   -0.1259   -0.7454    0.0000 H   0  0  0  0  0  0  0  0  0  0  0  0
   -1.0476   -1.8296    0.0000 H   0  0  0  0  0  0  0  0  0  0  0  0
   -1.1605   -2.4053    0.0000 H   0  0  0  0  0  0  0  0  0  0  0  0
   -2.0113   -3.0875    0.0000 H   0  0  0  0  0  0  0  0  0  0  0  0
   -2.1325   -3.2035    0.0000 H   0  0  0  0  0  0  0  0  0  0  0  0
   -3.1930   -4.1524    0.0000 H   0  0  0  0  0  0  0  0  0  0  0  0
   -3.6175   -4.4266    0.0000 H   0  0  0  0  0  0  0  0  0  0  0  0
   -4.7354   -5.0062    0.0000 H   0  0  0  0  0  0  0  0  0  0  0  0
   -5.2041   -5.1951    0.0000 H   0  0  0  0  0  0  0  0  0  0  0  0
   -6.4114   -5.5527    0.0000 H   0  0  0  0  0  0  0  0  0  0  0  0
   -6.9074   -5.6495    0.0000 H   0  0  0  0  0  0  0  0  0  0  0  0
   -8.3296   -5.7014    0.0000 H   0  0  0  0  0  0  0  0  0  0  0  0
   -9.3057   -5.8529    0.0000 H   0  0  0  0  0  0  0  0  0  0  0  0
    1.6362    0.3006    0.0000 H   0  0  0  0  0  0  0  0  0  0  0  0
    1.8393    1.9218    0.0000 H   0  0  0  0  0  0  0  0  0  0  0  0
    0.2585    2.7497    0.0000 H   0  0  0  0  0  0  0  0  0  0  0  0
    0.9433    3.9656    0.0000 H   0  0  0  0  0  0  0  0  0  0  0  0
    0.6544    4.9102    0.0000 H   0  0  0  0  0  0  0  0  0  0  0  0
    1.0597    7.7266    0.0000 H   0  0  0  0  0  0  0  0  0  0  0  0
   -0.7177    7.5683    0.0000 H   0  0  0  0  0  0  0  0  0  0  0  0
    2.7927    8.5261    0.0000 H   0  0  0  0  0  0  0  0  0  0  0  0
    5.5478    6.7770    0.0000 H   0  0  0  0  0  0  0  0  0  0  0  0
    4.7356    3.6163    0.0000 H   0  0  0  0  0  0  0  0  0  0  0  0
   -0.7990    8.9615    0.0000 H   0  0  0  0  0  0  0  0  0  0  0  0
   -1.5527    9.6000    0.0000 H   0  0  0  0  0  0  0  0  0  0  0  0
   -2.7344   12.1884    0.0000 H   0  0  0  0  0  0  0  0  0  0  0  0
   -4.1441   11.0943    0.0000 H   0  0  0  0  0  0  0  0  0  0  0  0
    0.4518   13.1005    0.0000 H   0  0  0  0  0  0  0  0  0  0  0  0
   -2.0925   13.6266    0.0000 H   0  0  0  0  0  0  0  0  0  0  0  0
   -4.9656   12.2224    0.0000 H   0  0  0  0  0  0  0  0  0  0  0  0
   -5.9449   12.3520    0.0000 H   0  0  0  0  0  0  0  0  0  0  0  0
   -6.5556   13.8141    0.0000 H   0  0  0  0  0  0  0  0  0  0  0  0
   -8.3384   13.8906    0.0000 H   0  0  0  0  0  0  0  0  0  0  0  0
   -8.9329   12.2081    0.0000 H   0  0  0  0  0  0  0  0  0  0  0  0
  -10.0522   12.7370    0.0000 H   0  0  0  0  0  0  0  0  0  0  0  0
  -10.9495   12.2502    0.0000 H   0  0  0  0  0  0  0  0  0  0  0  0
  -14.0350   12.1204    0.0000 H   0  0  0  0  0  0  0  0  0  0  0  0
  -13.5636   10.5561    0.0000 H   0  0  0  0  0  0  0  0  0  0  0  0
  -10.9331   13.1341    0.0000 H   0  0  0  0  0  0  0  0  0  0  0  0
  -13.6622   15.5788    0.0000 H   0  0  0  0  0  0  0  0  0  0  0  0
  -15.0822   14.4981    0.0000 H   0  0  0  0  0  0  0  0  0  0  0  0
  -14.4640   12.8242    0.0000 H   0  0  0  0  0  0  0  0  0  0  0  0
  -12.4446   15.8772    0.0000 H   0  0  0  0  0  0  0  0  0  0  0  0
  -10.6859   15.5756    0.0000 H   0  0  0  0  0  0  0  0  0  0  0  0
  -10.5590   13.6514    0.0000 H   0  0  0  0  0  0  0  0  0  0  0  0
  -14.7912   10.3958    0.0000 H   0  0  0  0  0  0  0  0  0  0  0  0
  -15.2828    9.5012    0.0000 H   0  0  0  0  0  0  0  0  0  0  0  0
  -17.8495    7.9024    0.0000 H   0  0  0  0  0  0  0  0  0  0  0  0
  -16.5660    6.6628    0.0000 H   0  0  0  0  0  0  0  0  0  0  0  0
  -17.2091   10.9827    0.0000 H   0  0  0  0  0  0  0  0  0  0  0  0
  -15.7469   10.2537    0.0000 H   0  0  0  0  0  0  0  0  0  0  0  0
  -17.5121    5.8642    0.0000 H   0  0  0  0  0  0  0  0  0  0  0  0
  -17.4420    4.8458    0.0000 H   0  0  0  0  0  0  0  0  0  0  0  0
  -18.6058    1.9853    0.0000 H   0  0  0  0  0  0  0  0  0  0  0  0
  -16.9869    1.7643    0.0000 H   0  0  0  0  0  0  0  0  0  0  0  0
  -19.8635    5.0507    0.0000 H   0  0  0  0  0  0  0  0  0  0  0  0
  -18.2393    5.2280    0.0000 H   0  0  0  0  0  0  0  0  0  0  0  0
  -21.2036    2.0204    0.0000 H   0  0  0  0  0  0  0  0  0  0  0  0
  -19.4241    1.8874    0.0000 H   0  0  0  0  0  0  0  0  0  0  0  0
  -21.4925    5.4237    0.0000 H   0  0  0  0  0  0  0  0  0  0  0  0
  -25.4197    3.2266    0.0000 H   0  0  0  0  0  0  0  0  0  0  0  0
  -24.0903    5.4588    0.0000 H   0  0  0  0  0  0  0  0  0  0  0  0
  -24.0521    0.8051    0.0000 H   0  0  0  0  0  0  0  0  0  0  0  0
  -21.5533    0.9241    0.0000 H   0  0  0  0  0  0  0  0  0  0  0  0
  -17.3511    0.5810    0.0000 H   0  0  0  0  0  0  0  0  0  0  0  0
  -14.8279   -3.1176    0.0000 H   0  0  0  0  0  0  0  0  0  0  0  0
  -15.7643   -2.2758    0.0000 H   0  0  0  0  0  0  0  0  0  0  0  0
  -13.6411   -4.1769    0.0000 H   0  0  0  0  0  0  0  0  0  0  0  0
  -14.5394   -3.5585    0.0000 H   0  0  0  0  0  0  0  0  0  0  0  0
  -11.9116   -5.0197    0.0000 H   0  0  0  0  0  0  0  0  0  0  0  0
  -13.2153   -4.4492    0.0000 H   0  0  0  0  0  0  0  0  0  0  0  0
  -11.0594   -5.5192    0.0000 H   0  0  0  0  0  0  0  0  0  0  0  0
  -17.8314   -1.4682    0.0000 H   0  0  0  0  0  0  0  0  0  0  0  0
  -18.1520    0.1339    0.0000 H   0  0  0  0  0  0  0  0  0  0  0  0
  -16.8189    1.0785    0.0000 H   0  0  0  0  0  0  0  0  0  0  0  0
  -18.4063   -0.6729    0.0000 H   0  0  0  0  0  0  0  0  0  0  0  0
  -16.7423   -3.6279    0.0000 H   0  0  0  0  0  0  0  0  0  0  0  0
  -17.8913   -6.0671    0.0000 H   0  0  0  0  0  0  0  0  0  0  0  0
  -16.8794   -4.5973    0.0000 H   0  0  0  0  0  0  0  0  0  0  0  0
  -21.2689   -5.2603    0.0000 H   0  0  0  0  0  0  0  0  0  0  0  0
  -20.7331   -4.0594    0.0000 H   0  0  0  0  0  0  0  0  0  0  0  0
  -19.6691   -8.1619    0.0000 H   0  0  0  0  0  0  0  0  0  0  0  0
  -18.4855   -6.8264    0.0000 H   0  0  0  0  0  0  0  0  0  0  0  0
  -22.7408   -6.6440    0.0000 H   0  0  0  0  0  0  0  0  0  0  0  0
  -23.1822  -10.7864    0.0000 H   0  0  0  0  0  0  0  0  0  0  0  0
  -24.1534   -8.3767    0.0000 H   0  0  0  0  0  0  0  0  0  0  0  0
  -20.6097  -11.1501    0.0000 H   0  0  0  0  0  0  0  0  0  0  0  0
  -19.0085   -9.1041    0.0000 H   0  0  0  0  0  0  0  0  0  0  0  0
  -19.9107   -5.9651    0.0000 H   0  0  0  0  0  0  0  0  0  0  0  0
  -21.4826   -3.1407    0.0000 H   0  0  0  0  0  0  0  0  0  0  0  0
  -24.7800   -4.3580    0.0000 H   0  0  0  0  0  0  0  0  0  0  0  0
  -23.6877   -5.5731    0.0000 H   0  0  0  0  0  0  0  0  0  0  0  0
  -23.3990   -1.1718    0.0000 H   0  0  0  0  0  0  0  0  0  0  0  0
  -22.1272   -2.4236    0.0000 H   0  0  0  0  0  0  0  0  0  0  0  0
  -26.5343   -2.2435    0.0000 H   0  0  0  0  0  0  0  0  0  0  0  0
  -25.4246   -3.6409    0.0000 H   0  0  0  0  0  0  0  0  0  0  0  0
  -24.1163    0.1344    0.0000 H   0  0  0  0  0  0  0  0  0  0  0  0
  -28.5089    1.6720    0.0000 H   0  0  0  0  0  0  0  0  0  0  0  0
  -25.9671    2.2101    0.0000 H   0  0  0  0  0  0  0  0  0  0  0  0
  -29.3138   -0.7983    0.0000 H   0  0  0  0  0  0  0  0  0  0  0  0
  -27.5769   -2.7304    0.0000 H   0  0  0  0  0  0  0  0  0  0  0  0
  1  2  1  0
  2  3  1  0
  3  4  2  0
  4  5  1  0
  5  6  2  0
  6  7  1  0
  7  8  2  0
  7  9  1  0
  9 10  1  0
 10 11  1  0
 11 12  2  0
  9 13  1  0
 13 14  1  0
 14 15  2  0
 15 16  1  0
 16 17  2  0
 17 18  1  0
 16 19  1  0
 14 20  1  0
 20 21  1  0
 21 22  2  0
 22 23  1  0
 23 24  2  0
 24 25  1  0
 25 26  2  0
 25 27  1  0
  1 28  2  0
  1 29  1  0
 29 30  1  0
 30 31  1  0
 31 32  1  0
 32 33  2  0
 32 34  1  0
 34 35  1  0
 35 36  1  0
 36 37  1  0
 37 38  1  0
 38 39  2  0
 38 40  1  0
 35 41  1  0
 41 42  2  0
 41 43  1  0
 43 44  1  0
 44 45  1  0
 45 46  1  0
 46 47  1  0
 47 48  2  0
 47 49  1  0
 44 50  1  0
 50 51  2  0
 50 52  1  0
 52 53  1  0
 53 54  1  0
 54 55  1  0
 55 56  1  0
 55 57  2  0
 53 58  1  0
 58 59  2  0
 58 60  1  0
 60 61  1  0
 61 62  1  0
 61 63  1  0
 63 64  2  0
 63 65  1  0
 65 66  1  0
 66 67  1  0
 67 68  1  0
 68 69  1  0
 69 70  1  0
 70 71  1  0
 66 72  1  0
 72 73  2  0
 72 74  1  0
 74 75  1  0
 75 76  1  0
 76 77  1  0
 77 78  1  0
 78 79  1  0
 79 80  1  0
 80 81  2  3
 80 82  1  0
 75 83  1  0
 83 84  2  0
 83 85  1  0
 85 86  1  0
 86 87  1  0
 87 88  1  0
 88 89  1  0
 89 90  1  0
 90 91  1  0
 91 92  2  3
 91 93  1  0
 86 94  1  0
 94 95  2  0
 94 96  1  0
 97 96  1  6
 97 98  1  0
 98 99  1  0
 99100  1  0
100101  1  0
101102  1  0
102103  1  0
103104  1  0
 97105  1  0
 97106  1  0
106107  2  0
106108  1  0
108109  1  0
109110  1  0
110111  1  0
111112  2  0
112113  1  0
113114  1  0
114115  2  0
109116  1  0
116117  2  0
116118  1  0
118119  1  0
119120  1  0
120121  1  0
121122  1  0
121123  2  0
119124  1  0
124125  2  0
124126  1  0
126127  1  0
127128  1  0
127129  1  0
129130  2  0
129131  1  0
131132  1  0
132133  1  0
133134  1  0
134135  1  0
134136  1  0
132137  1  0
137138  2  0
137139  1  0
139140  1  0
140141  1  0
141142  1  0
142143  1  0
143144  2  0
143145  1  0
140146  1  0
146147  2  0
146148  1  0
148149  1  0
149150  1  0
150151  1  0
151152  1  0
152153  1  0
153154  1  0
154155  2  3
154156  1  0
149157  1  0
157158  2  0
157159  1  0
159160  1  0
160161  1  0
161162  1  0
162163  1  0
163164  1  0
160165  1  0
160166  1  1
166167  2  0
166168  1  0
168169  1  0
169170  1  0
170171  1  0
171172  1  0
172173  1  0
173174  1  0
174175  2  3
174176  1  0
169177  1  0
177178  2  0
177179  1  0
179180  1  0
180181  1  0
181182  1  0
182183  1  0
183184  1  0
184185  1  0
185186  2  3
185187  1  0
180188  1  0
188189  2  0
188190  1  0
  8  3  1  0
115111  1  0
 11  6  1  0
 18 13  2  0
104164  2  0
 22  9  1  0
 26 21  1  0
  2191  1  0
  4192  1  0
  5193  1  0
  8194  1  0
 15195  1  0
 17196  1  0
 18197  1  0
 19198  1  0
 23199  1  0
 24200  1  0
 26201  1  0
 27202  1  0
 29203  1  0
 30204  1  0
 30205  1  0
 31206  1  0
 31207  1  0
 34208  1  0
 35209  1  1
 36210  1  0
 36211  1  0
 37212  1  0
 37213  1  0
 43214  1  0
 44215  1  1
 45216  1  0
 45217  1  0
 46218  1  0
 46219  1  0
 52220  1  0
 53221  1  1
 54222  1  0
 54223  1  0
 56224  1  0
 56225  1  0
 60226  1  0
 61227  1  1
 62228  1  0
 62229  1  0
 62230  1  0
 65231  1  0
 66232  1  1
 67233  1  0
 67234  1  0
 68235  1  0
 68236  1  0
 69237  1  0
 69238  1  0
 70239  1  0
 70240  1  0
 71241  1  0
 71242  1  0
 71243  1  0
 74244  1  0
 75245  1  1
 76246  1  0
 76247  1  0
 77248  1  0
 77249  1  0
 78250  1  0
 78251  1  0
 79252  1  0
 81253  1  0
 81254  1  0
 82255  1  0
 82256  1  0
 85257  1  0
 86258  1  1
 87259  1  0
 87260  1  0
 88261  1  0
 88262  1  0
 89263  1  0
 89264  1  0
 90265  1  0
 92266  1  0
 92267  1  0
 93268  1  0
 93269  1  0
 96270  1  0
 98271  1  0
 98272  1  0
 99273  1  0
 99274  1  0
100275  1  0
100276  1  0
101277  1  0
101278  1  0
102279  1  0
102280  1  0
103281  1  0
103282  1  0
104283  1  0
105284  1  0
105285  1  0
105286  1  0
108287  1  0
109288  1  6
110289  1  0
110290  1  0
112291  1  0
113292  1  0
114293  1  0
118294  1  0
119295  1  6
120296  1  0
120297  1  0
122298  1  0
122299  1  0
126300  1  0
127301  1  6
128302  1  0
128303  1  0
128304  1  0
131305  1  0
132306  1  6
133307  1  0
133308  1  0
134309  1  0
135310  1  0
135311  1  0
135312  1  0
136313  1  0
136314  1  0
136315  1  0
139316  1  0
140317  1  6
141318  1  0
141319  1  0
142320  1  0
142321  1  0
148322  1  0
149323  1  6
150324  1  0
150325  1  0
151326  1  0
151327  1  0
152328  1  0
152329  1  0
153330  1  0
155331  1  0
155332  1  0
156333  1  0
156334  1  0
159335  1  0
161336  1  0
161337  1  0
162338  1  0
162339  1  0
163340  1  0
163341  1  0
164342  1  0
165343  1  0
165344  1  0
165345  1  0
168346  1  0
169347  1  1
170348  1  0
170349  1  0
171350  1  0
171351  1  0
172352  1  0
172353  1  0
173354  1  0
175355  1  0
175356  1  0
176357  1  0
176358  1  0
179359  1  0
180360  1  6
181361  1  0
181362  1  0
182363  1  0
182364  1  0
183365  1  0
183366  1  0
184367  1  0
186368  1  0
186369  1  0
187370  1  0
187371  1  0
M  CHG  8  40  -1  49  -1  71   1  81   1  92   1 145  -1 155   1 175   1
M  CHG  2 186   1 190  -1
M  END
