
     RDKit          2D

301307  0  0  0  0  0  0  0  0999 V2000
   25.3868   -0.7149    0.0000 C   0  0  0  0  0  0  0  0  0  0  0  0
   26.7157   -1.4106    0.0000 N   0  0  0  0  0  0  0  0  0  0  0  0
   27.9826   -0.6075    0.0000 C   0  0  0  0  0  0  0  0  0  0  0  0
   27.9206    0.8912    0.0000 C   0  0  0  0  0  0  0  0  0  0  0  0
   29.1875    1.6943    0.0000 C   0  0  0  0  0  0  0  0  0  0  0  0
   30.5165    0.9986    0.0000 C   0  0  0  0  0  0  0  0  0  0  0  0
   30.5785   -0.5001    0.0000 C   0  0  0  0  0  0  0  0  0  0  0  0
   29.3116   -1.3031    0.0000 C   0  0  0  0  0  0  0  0  0  0  0  0
   32.0230   -0.9042    0.0000 C   0  0  0  0  0  0  0  0  0  0  0  0
   32.8538    0.3447    0.0000 O   0  0  0  0  0  0  0  0  0  0  0  0
   31.9227    1.5208    0.0000 C   0  0  0  0  0  0  0  0  0  0  0  0
   32.3268    2.9653    0.0000 O   0  0  0  0  0  0  0  0  0  0  0  0
   33.5019   -1.1552    0.0000 C   0  0  0  0  0  0  0  0  0  0  0  0
   34.0240   -2.5614    0.0000 C   0  0  0  0  0  0  0  0  0  0  0  0
   35.5029   -2.8123    0.0000 C   0  0  0  0  0  0  0  0  0  0  0  0
   36.4596   -1.6570    0.0000 C   0  0  0  0  0  0  0  0  0  0  0  0
   35.9375   -0.2508    0.0000 C   0  0  0  0  0  0  0  0  0  0  0  0
   34.4586    0.0001    0.0000 C   0  0  0  0  0  0  0  0  0  0  0  0
   37.9385   -1.9080    0.0000 O   0  0  0  0  0  0  0  0  0  0  0  0
   33.0672   -3.7166    0.0000 O   0  0  0  0  0  0  0  0  0  0  0  0
   31.5884   -3.4657    0.0000 C   0  0  0  0  0  0  0  0  0  0  0  0
   31.0663   -2.0595    0.0000 C   0  0  0  0  0  0  0  0  0  0  0  0
   29.8311   -2.4648    0.0000 C   0  0  0  0  0  0  0  0  0  0  0  0
   29.3208   -3.0809    0.0000 C   0  0  0  0  0  0  0  0  0  0  0  0
   29.5993   -3.8309    0.0000 C   0  0  0  0  0  0  0  0  0  0  0  0
   30.3880   -3.9647    0.0000 C   0  0  0  0  0  0  0  0  0  0  0  0
   28.1960   -5.5253    0.0000 O   0  0  0  0  0  0  0  0  0  0  0  0
   25.3248    0.7838    0.0000 S   0  0  0  0  0  0  0  0  0  0  0  0
   24.1199   -1.5180    0.0000 N   0  0  0  0  0  0  0  0  0  0  0  0
   22.7909   -0.8224    0.0000 C   0  0  0  0  0  0  0  0  0  0  0  0
   21.5240   -1.6254    0.0000 C   0  0  0  0  0  0  0  0  0  0  0  0
   20.1951   -0.9298    0.0000 O   0  0  0  0  0  0  0  0  0  0  0  0
   18.9282   -1.7328    0.0000 C   0  0  0  0  0  0  0  0  0  0  0  0
   17.5992   -1.0372    0.0000 C   0  0  0  0  0  0  0  0  0  0  0  0
   16.3323   -1.8403    0.0000 O   0  0  0  0  0  0  0  0  0  0  0  0
   15.0034   -1.1446    0.0000 C   0  0  0  0  0  0  0  0  0  0  0  0
   13.7364   -1.9477    0.0000 C   0  0  0  0  0  0  0  0  0  0  0  0
   13.9807   -3.4277    0.0000 O   0  0  0  0  0  0  0  0  0  0  0  0
   12.4075   -1.2521    0.0000 N   0  0  0  0  0  0  0  0  0  0  0  0
   11.1406   -2.0551    0.0000 C   0  0  0  0  0  0  0  0  0  0  0  0
   12.3896   -2.8858    0.0000 C   0  0  0  0  0  0  0  0  0  0  0  0
    9.6754   -2.3765    0.0000 C   0  0  0  0  0  0  0  0  0  0  0  0
    9.6250   -3.1720    0.0000 O   0  0  0  0  0  0  0  0  0  0  0  0
    8.6645   -1.2682    0.0000 N   0  0  0  0  0  0  0  0  0  0  0  0
    7.1994   -1.5896    0.0000 C   0  0  0  0  0  0  0  0  0  0  0  0
    7.7702   -2.9767    0.0000 C   0  0  0  0  0  0  0  0  0  0  0  0
    9.2570   -3.1759    0.0000 C   0  0  0  0  0  0  0  0  0  0  0  0
   10.2920   -2.0901    0.0000 C   0  0  0  0  0  0  0  0  0  0  0  0
   11.6444   -2.7390    0.0000 N   0  0  0  0  0  0  0  0  0  0  0  0
   11.4452   -4.2257    0.0000 C   0  0  0  0  0  0  0  0  0  0  0  0
    9.9697   -4.4957    0.0000 N   0  0  0  0  0  0  0  0  0  0  0  0
    5.7126   -1.3904    0.0000 C   0  0  0  0  0  0  0  0  0  0  0  0
    5.1115   -2.7647    0.0000 O   0  0  0  0  0  0  0  0  0  0  0  0
    5.1418   -0.0033    0.0000 N   0  0  0  0  0  0  0  0  0  0  0  0
    3.6551    0.1959    0.0000 C   0  0  0  0  0  0  0  0  0  0  0  0
    3.7171   -1.3028    0.0000 C   0  0  0  0  0  0  0  0  0  0  0  0
    5.0460   -1.9985    0.0000 C   0  0  0  0  0  0  0  0  0  0  0  0
    5.1080   -3.4972    0.0000 C   0  0  0  0  0  0  0  0  0  0  0  0
    6.5327   -2.1976    0.0000 C   0  0  0  0  0  0  0  0  0  0  0  0
    2.3261    0.8915    0.0000 C   0  0  0  0  0  0  0  0  0  0  0  0
    1.2912   -0.1942    0.0000 O   0  0  0  0  0  0  0  0  0  0  0  0
    2.2641    2.3903    0.0000 N   0  0  0  0  0  0  0  0  0  0  0  0
    0.9352    3.0859    0.0000 C   0  0  0  0  0  0  0  0  0  0  0  0
    0.9020    1.5863    0.0000 C   0  0  0  0  0  0  0  0  0  0  0  0
    0.5856    0.1200    0.0000 C   0  0  0  0  0  0  0  0  0  0  0  0
   -0.0025   -1.2599    0.0000 C   0  0  0  0  0  0  0  0  0  0  0  0
   -0.8412   -2.5035    0.0000 C   0  0  0  0  0  0  0  0  0  0  0  0
   -1.9000   -3.5660    0.0000 C   0  0  0  0  0  0  0  0  0  0  0  0
   -3.1408   -4.4088    0.0000 C   0  0  0  0  0  0  0  0  0  0  0  0
   -4.5187   -5.0016    0.0000 C   0  0  0  0  0  0  0  0  0  0  0  0
    2.1486    3.9677    0.0000 C   0  0  0  0  0  0  0  0  0  0  0  0
    0.6839    4.5647    0.0000 C   0  0  0  0  0  0  0  0  0  0  0  0
    2.0737    5.1290    0.0000 O   0  0  0  0  0  0  0  0  0  0  0  0
    0.1573    5.9693    0.0000 N   0  0  0  0  0  0  0  0  0  0  0  0
   -0.6255    7.2488    0.0000 C   0  0  0  0  0  0  0  0  0  0  0  0
   -0.0815    8.6466    0.0000 C   0  0  0  0  0  0  0  0  0  0  0  0
    1.4011    8.8744    0.0000 C   0  0  0  0  0  0  0  0  0  0  0  0
    1.9452   10.2722    0.0000 C   0  0  0  0  0  0  0  0  0  0  0  0
    2.8722    8.5813    0.0000 C   0  0  0  0  0  0  0  0  0  0  0  0
   -1.6364    8.3570    0.0000 C   0  0  0  0  0  0  0  0  0  0  0  0
   -0.7723    9.5831    0.0000 O   0  0  0  0  0  0  0  0  0  0  0  0
   -2.8387    9.2538    0.0000 N   0  0  0  0  0  0  0  0  0  0  0  0
   -4.1891    9.9070    0.0000 C   0  0  0  0  0  0  0  0  0  0  0  0
   -4.4871   11.3771    0.0000 C   0  0  0  0  0  0  0  0  0  0  0  0
   -3.3630   12.3702    0.0000 S   0  0  0  0  0  0  0  0  0  0  0  0
   -5.6386   10.2928    0.0000 C   0  0  0  0  0  0  0  0  0  0  0  0
   -5.5746   11.7914    0.0000 O   0  0  0  0  0  0  0  0  0  0  0  0
   -7.1350   10.3972    0.0000 N   0  0  0  0  0  0  0  0  0  0  0  0
   -8.6241   10.2166    0.0000 C   0  0  0  0  0  0  0  0  0  0  0  0
   -9.6696   11.2922    0.0000 C   0  0  0  0  0  0  0  0  0  0  0  0
   -9.2609   12.7355    0.0000 C   0  0  0  0  0  0  0  0  0  0  0  0
  -10.3064   13.8110    0.0000 C   0  0  0  0  0  0  0  0  0  0  0  0
   -8.3832   13.9519    0.0000 C   0  0  0  0  0  0  0  0  0  0  0  0
  -10.0521    9.7575    0.0000 C   0  0  0  0  0  0  0  0  0  0  0  0
  -10.8084   11.0528    0.0000 O   0  0  0  0  0  0  0  0  0  0  0  0
  -11.3674    9.0364    0.0000 N   0  0  0  0  0  0  0  0  0  0  0  0
  -12.5224    8.0794    0.0000 C   0  0  0  0  0  0  0  0  0  0  0  0
  -13.9835    8.4190    0.0000 C   0  0  0  0  0  0  0  0  0  0  0  0
  -14.4199    9.8541    0.0000 C   0  0  0  0  0  0  0  0  0  0  0  0
  -15.8810   10.1937    0.0000 C   0  0  0  0  0  0  0  0  0  0  0  0
  -16.3174   11.6288    0.0000 O   0  0  0  0  0  0  0  0  0  0  0  0
  -16.9056    9.0982    0.0000 O   0  0  0  0  0  0  0  0  0  0  0  0
  -13.4755    6.9211    0.0000 C   0  0  0  0  0  0  0  0  0  0  0  0
  -14.8121    7.6019    0.0000 O   0  0  0  0  0  0  0  0  0  0  0  0
  -14.1921    5.6034    0.0000 N   0  0  0  0  0  0  0  0  0  0  0  0
  -14.6465    4.1738    0.0000 C   0  0  0  0  0  0  0  0  0  0  0  0
  -16.0592    3.6696    0.0000 C   0  0  0  0  0  0  0  0  0  0  0  0
  -17.2022    4.6409    0.0000 C   0  0  0  0  0  0  0  0  0  0  0  0
  -18.6149    4.1367    0.0000 C   0  0  0  0  0  0  0  0  0  0  0  0
  -19.7579    5.1080    0.0000 C   0  0  0  0  0  0  0  0  0  0  0  0
  -21.1707    4.6038    0.0000 N   0  0  0  0  0  0  0  0  0  0  0  0
  -14.8220    2.6841    0.0000 C   0  0  0  0  0  0  0  0  0  0  0  0
  -16.3145    2.5342    0.0000 O   0  0  0  0  0  0  0  0  0  0  0  0
  -14.7125    1.1881    0.0000 N   0  0  0  0  0  0  0  0  0  0  0  0
  -14.3218   -0.2601    0.0000 C   0  0  0  0  0  0  0  0  0  0  0  0
  -15.2376   -1.4481    0.0000 C   0  0  0  0  0  0  0  0  0  0  0  0
  -16.7244   -1.2489    0.0000 C   0  0  0  0  0  0  0  0  0  0  0  0
  -17.6402   -2.4368    0.0000 C   0  0  0  0  0  0  0  0  0  0  0  0
  -18.0533   -0.5532    0.0000 C   0  0  0  0  0  0  0  0  0  0  0  0
  -13.6641   -1.6082    0.0000 C   0  0  0  0  0  0  0  0  0  0  0  0
  -14.8386   -2.5412    0.0000 O   0  0  0  0  0  0  0  0  0  0  0  0
  -12.7631   -2.8075    0.0000 N   0  0  0  0  0  0  0  0  0  0  0  0
  -11.6515   -3.8146    0.0000 C   0  0  0  0  0  0  0  0  0  0  0  0
  -10.3694   -4.5932    0.0000 C   0  0  0  0  0  0  0  0  0  0  0  0
   -8.9631   -5.1150    0.0000 C   0  0  0  0  0  0  0  0  0  0  0  0
   -7.4834   -5.3612    0.0000 C   0  0  0  0  0  0  0  0  0  0  0  0
   -5.9839   -5.3230    0.0000 C   0  0  0  0  0  0  0  0  0  0  0  0
  -13.0475   -4.3634    0.0000 C   0  0  0  0  0  0  0  0  0  0  0  0
  -11.7797   -5.3091    0.0000 C   0  0  0  0  0  0  0  0  0  0  0  0
  -10.7938   -6.4396    0.0000 O   0  0  0  0  0  0  0  0  0  0  0  0
  -13.1381   -5.9454    0.0000 N   0  0  0  0  0  0  0  0  0  0  0  0
  -13.2663   -7.4399    0.0000 C   0  0  0  0  0  0  0  0  0  0  0  0
  -14.6247   -8.0761    0.0000 C   0  0  0  0  0  0  0  0  0  0  0  0
  -15.8549   -7.2178    0.0000 O   0  0  0  0  0  0  0  0  0  0  0  0
  -14.7529   -9.5706    0.0000 N   0  0  0  0  0  0  0  0  0  0  0  0
  -16.1113  -10.2068    0.0000 C   0  0  0  0  0  0  0  0  0  0  0  0
  -17.6053  -10.3401    0.0000 C   0  0  0  0  0  0  0  0  0  0  0  0
  -18.4678   -9.1128    0.0000 C   0  0  0  0  0  0  0  0  0  0  0  0
  -19.9619   -9.2461    0.0000 C   0  0  0  0  0  0  0  0  0  0  0  0
  -18.8585   -7.6646    0.0000 C   0  0  0  0  0  0  0  0  0  0  0  0
  -16.2395  -11.7013    0.0000 C   0  0  0  0  0  0  0  0  0  0  0  0
  -15.0093  -12.5596    0.0000 O   0  0  0  0  0  0  0  0  0  0  0  0
  -17.5979  -12.3376    0.0000 N   0  0  0  0  0  0  0  0  0  0  0  0
  -17.7261  -13.8321    0.0000 C   0  0  0  0  0  0  0  0  0  0  0  0
  -17.3354  -15.2803    0.0000 C   0  0  0  0  0  0  0  0  0  0  0  0
  -18.3943  -16.3428    0.0000 C   0  0  0  0  0  0  0  0  0  0  0  0
  -19.0845  -14.4683    0.0000 C   0  0  0  0  0  0  0  0  0  0  0  0
  -19.3939  -15.9361    0.0000 O   0  0  0  0  0  0  0  0  0  0  0  0
  -20.3146  -13.6100    0.0000 O   0  0  0  0  0  0  0  0  0  0  0  0
   26.5946   -2.9057    0.0000 H   0  0  0  0  0  0  0  0  0  0  0  0
   26.5917    1.5869    0.0000 H   0  0  0  0  0  0  0  0  0  0  0  0
   29.1255    3.1930    0.0000 H   0  0  0  0  0  0  0  0  0  0  0  0
   29.0091   -2.7723    0.0000 H   0  0  0  0  0  0  0  0  0  0  0  0
   36.0250   -4.2185    0.0000 H   0  0  0  0  0  0  0  0  0  0  0  0
   36.8942    0.9044    0.0000 H   0  0  0  0  0  0  0  0  0  0  0  0
   33.9365    1.4063    0.0000 H   0  0  0  0  0  0  0  0  0  0  0  0
   38.8952   -0.7527    0.0000 H   0  0  0  0  0  0  0  0  0  0  0  0
   29.0653   -0.4024    0.0000 H   0  0  0  0  0  0  0  0  0  0  0  0
   27.1322   -2.8950    0.0000 H   0  0  0  0  0  0  0  0  0  0  0  0
   31.1538   -6.0271    0.0000 H   0  0  0  0  0  0  0  0  0  0  0  0
   28.7181   -6.9315    0.0000 H   0  0  0  0  0  0  0  0  0  0  0  0
   24.1819   -3.0167    0.0000 H   0  0  0  0  0  0  0  0  0  0  0  0
   23.7068    0.3656    0.0000 H   0  0  0  0  0  0  0  0  0  0  0  0
   21.7801    0.2859    0.0000 H   0  0  0  0  0  0  0  0  0  0  0  0
   22.5349   -2.7336    0.0000 H   0  0  0  0  0  0  0  0  0  0  0  0
   20.7598   -2.9162    0.0000 H   0  0  0  0  0  0  0  0  0  0  0  0
   19.7964   -2.9560    0.0000 H   0  0  0  0  0  0  0  0  0  0  0  0
   18.0123   -2.9208    0.0000 H   0  0  0  0  0  0  0  0  0  0  0  0
   18.5151    0.1507    0.0000 H   0  0  0  0  0  0  0  0  0  0  0  0
   16.7310    0.1860    0.0000 H   0  0  0  0  0  0  0  0  0  0  0  0
   15.7676    0.1461    0.0000 H   0  0  0  0  0  0  0  0  0  0  0  0
   13.9925   -0.0364    0.0000 H   0  0  0  0  0  0  0  0  0  0  0  0
   12.3455    0.2467    0.0000 H   0  0  0  0  0  0  0  0  0  0  0  0
   10.7431   -0.6088    0.0000 H   0  0  0  0  0  0  0  0  0  0  0  0
   13.6128   -2.9919    0.0000 H   0  0  0  0  0  0  0  0  0  0  0  0
   12.9228   -4.4975    0.0000 H   0  0  0  0  0  0  0  0  0  0  0  0
   11.1907   -4.2985    0.0000 H   0  0  0  0  0  0  0  0  0  0  0  0
    9.1189    0.1613    0.0000 H   0  0  0  0  0  0  0  0  0  0  0  0
    7.3205   -0.0945    0.0000 H   0  0  0  0  0  0  0  0  0  0  0  0
    7.8323   -4.4754    0.0000 H   0  0  0  0  0  0  0  0  0  0  0  0
    6.4264   -3.6430    0.0000 H   0  0  0  0  0  0  0  0  0  0  0  0
    9.8441   -0.6586    0.0000 H   0  0  0  0  0  0  0  0  0  0  0  0
   13.0975   -2.3668    0.0000 H   0  0  0  0  0  0  0  0  0  0  0  0
   12.3966   -5.3853    0.0000 H   0  0  0  0  0  0  0  0  0  0  0  0
    6.0576    1.1847    0.0000 H   0  0  0  0  0  0  0  0  0  0  0  0
    4.1094    1.6254    0.0000 H   0  0  0  0  0  0  0  0  0  0  0  0
    3.0919   -2.6663    0.0000 H   0  0  0  0  0  0  0  0  0  0  0  0
    2.2304   -1.1036    0.0000 H   0  0  0  0  0  0  0  0  0  0  0  0
    5.8327   -0.7213    0.0000 H   0  0  0  0  0  0  0  0  0  0  0  0
    6.2292   -4.4937    0.0000 H   0  0  0  0  0  0  0  0  0  0  0  0
    4.6537   -4.9267    0.0000 H   0  0  0  0  0  0  0  0  0  0  0  0
    3.6081   -3.4807    0.0000 H   0  0  0  0  0  0  0  0  0  0  0  0
    7.1036   -3.5848    0.0000 H   0  0  0  0  0  0  0  0  0  0  0  0
    8.0321   -2.2404    0.0000 H   0  0  0  0  0  0  0  0  0  0  0  0
    6.2885   -0.7177    0.0000 H   0  0  0  0  0  0  0  0  0  0  0  0
    3.6195    3.0329    0.0000 H   0  0  0  0  0  0  0  0  0  0  0  0
    2.3740    1.8749    0.0000 H   0  0  0  0  0  0  0  0  0  0  0  0
    1.9526    0.5156    0.0000 H   0  0  0  0  0  0  0  0  0  0  0  0
    2.0750   -0.0580    0.0000 H   0  0  0  0  0  0  0  0  0  0  0  0
    1.5608   -1.0197    0.0000 H   0  0  0  0  0  0  0  0  0  0  0  0
    1.4950   -1.1741    0.0000 H   0  0  0  0  0  0  0  0  0  0  0  0
    0.8928   -2.4634    0.0000 H   0  0  0  0  0  0  0  0  0  0  0  0
    0.6102   -2.8824    0.0000 H   0  0  0  0  0  0  0  0  0  0  0  0
   -0.1899   -3.8547    0.0000 H   0  0  0  0  0  0  0  0  0  0  0  0
   -0.5466   -4.2127    0.0000 H   0  0  0  0  0  0  0  0  0  0  0  0
   -1.5162   -5.0160    0.0000 H   0  0  0  0  0  0  0  0  0  0  0  0
   -1.9343   -5.3000    0.0000 H   0  0  0  0  0  0  0  0  0  0  0  0
   -3.2215   -5.9067    0.0000 H   0  0  0  0  0  0  0  0  0  0  0  0
   -4.0596   -6.4296    0.0000 H   0  0  0  0  0  0  0  0  0  0  0  0
    3.5831    3.5293    0.0000 H   0  0  0  0  0  0  0  0  0  0  0  0
    3.1326    5.0999    0.0000 H   0  0  0  0  0  0  0  0  0  0  0  0
    1.3536    5.2397    0.0000 H   0  0  0  0  0  0  0  0  0  0  0  0
    1.5756    6.4577    0.0000 H   0  0  0  0  0  0  0  0  0  0  0  0
    0.8736    7.1989    0.0000 H   0  0  0  0  0  0  0  0  0  0  0  0
   -0.0483   10.1462    0.0000 H   0  0  0  0  0  0  0  0  0  0  0  0
   -1.4379    9.2869    0.0000 H   0  0  0  0  0  0  0  0  0  0  0  0
    1.7318    7.4113    0.0000 H   0  0  0  0  0  0  0  0  0  0  0  0
    3.3890   10.6790    0.0000 H   0  0  0  0  0  0  0  0  0  0  0  0
    1.9784   11.7718    0.0000 H   0  0  0  0  0  0  0  0  0  0  0  0
    0.5208   10.7424    0.0000 H   0  0  0  0  0  0  0  0  0  0  0  0
    3.9916    9.5798    0.0000 H   0  0  0  0  0  0  0  0  0  0  0  0
    4.1544    7.8028    0.0000 H   0  0  0  0  0  0  0  0  0  0  0  0
    2.3282    7.1834    0.0000 H   0  0  0  0  0  0  0  0  0  0  0  0
   -2.0602   10.5360    0.0000 H   0  0  0  0  0  0  0  0  0  0  0  0
   -3.0042   10.8268    0.0000 H   0  0  0  0  0  0  0  0  0  0  0  0
   -5.1082   12.7425    0.0000 H   0  0  0  0  0  0  0  0  0  0  0  0
   -5.9744   11.1824    0.0000 H   0  0  0  0  0  0  0  0  0  0  0  0
   -3.6610   13.8403    0.0000 H   0  0  0  0  0  0  0  0  0  0  0  0
   -6.9901   11.8902    0.0000 H   0  0  0  0  0  0  0  0  0  0  0  0
   -7.9559   11.5596    0.0000 H   0  0  0  0  0  0  0  0  0  0  0  0
  -11.0199   11.9454    0.0000 H   0  0  0  0  0  0  0  0  0  0  0  0
  -10.8155   10.3243    0.0000 H   0  0  0  0  0  0  0  0  0  0  0  0
   -7.7926   12.4285    0.0000 H   0  0  0  0  0  0  0  0  0  0  0  0
  -10.0766   15.2933    0.0000 H   0  0  0  0  0  0  0  0  0  0  0  0
  -11.6567   14.4642    0.0000 H   0  0  0  0  0  0  0  0  0  0  0  0
  -11.3258   12.7107    0.0000 H   0  0  0  0  0  0  0  0  0  0  0  0
   -8.8264   15.3849    0.0000 H   0  0  0  0  0  0  0  0  0  0  0  0
   -7.1424   14.7947    0.0000 H   0  0  0  0  0  0  0  0  0  0  0  0
   -7.3376   12.8763    0.0000 H   0  0  0  0  0  0  0  0  0  0  0  0
  -12.0527   10.3707    0.0000 H   0  0  0  0  0  0  0  0  0  0  0  0
  -12.6864    9.5704    0.0000 H   0  0  0  0  0  0  0  0  0  0  0  0
  -15.4835    8.4212    0.0000 H   0  0  0  0  0  0  0  0  0  0  0  0
  -14.4242    6.9852    0.0000 H   0  0  0  0  0  0  0  0  0  0  0  0
  -14.3392   11.3519    0.0000 H   0  0  0  0  0  0  0  0  0  0  0  0
  -13.0188   10.3896    0.0000 H   0  0  0  0  0  0  0  0  0  0  0  0
  -15.4901    6.3553    0.0000 H   0  0  0  0  0  0  0  0  0  0  0  0
  -15.5905    5.3395    0.0000 H   0  0  0  0  0  0  0  0  0  0  0  0
  -17.2142    2.7126    0.0000 H   0  0  0  0  0  0  0  0  0  0  0  0
  -15.6548    2.2251    0.0000 H   0  0  0  0  0  0  0  0  0  0  0  0
  -17.7796    6.0253    0.0000 H   0  0  0  0  0  0  0  0  0  0  0  0
  -16.3130    5.8490    0.0000 H   0  0  0  0  0  0  0  0  0  0  0  0
  -19.6447    3.0460    0.0000 H   0  0  0  0  0  0  0  0  0  0  0  0
  -18.0375    2.7523    0.0000 H   0  0  0  0  0  0  0  0  0  0  0  0
  -20.4998    6.4117    0.0000 H   0  0  0  0  0  0  0  0  0  0  0  0
  -18.7281    6.1987    0.0000 H   0  0  0  0  0  0  0  0  0  0  0  0
  -22.3137    5.5751    0.0000 H   0  0  0  0  0  0  0  0  0  0  0  0
  -22.3257    3.6468    0.0000 H   0  0  0  0  0  0  0  0  0  0  0  0
  -20.5932    3.2194    0.0000 H   0  0  0  0  0  0  0  0  0  0  0  0
  -16.2109    1.1190    0.0000 H   0  0  0  0  0  0  0  0  0  0  0  0
  -15.7462    0.2101    0.0000 H   0  0  0  0  0  0  0  0  0  0  0  0
  -15.6919   -2.8776    0.0000 H   0  0  0  0  0  0  0  0  0  0  0  0
  -14.1165   -2.4446    0.0000 H   0  0  0  0  0  0  0  0  0  0  0  0
  -16.6295    0.2481    0.0000 H   0  0  0  0  0  0  0  0  0  0  0  0
  -19.1401   -2.4204    0.0000 H   0  0  0  0  0  0  0  0  0  0  0  0
  -18.0945   -3.8664    0.0000 H   0  0  0  0  0  0  0  0  0  0  0  0
  -16.4060   -3.2893    0.0000 H   0  0  0  0  0  0  0  0  0  0  0  0
  -19.4087   -1.1959    0.0000 H   0  0  0  0  0  0  0  0  0  0  0  0
  -19.0642    0.5550    0.0000 H   0  0  0  0  0  0  0  0  0  0  0  0
  -17.1374    0.6347    0.0000 H   0  0  0  0  0  0  0  0  0  0  0  0
  -13.9863   -3.6758    0.0000 H   0  0  0  0  0  0  0  0  0  0  0  0
  -10.2124   -6.0849    0.0000 H   0  0  0  0  0  0  0  0  0  0  0  0
  -11.4043   -5.6789    0.0000 H   0  0  0  0  0  0  0  0  0  0  0  0
   -8.7048   -6.5926    0.0000 H   0  0  0  0  0  0  0  0  0  0  0  0
   -9.7738   -6.3770    0.0000 H   0  0  0  0  0  0  0  0  0  0  0  0
   -6.7833   -6.6878    0.0000 H   0  0  0  0  0  0  0  0  0  0  0  0
   -8.2063   -6.6755    0.0000 H   0  0  0  0  0  0  0  0  0  0  0  0
   -5.8033   -6.8121    0.0000 H   0  0  0  0  0  0  0  0  0  0  0  0
  -13.6226   -5.7488    0.0000 H   0  0  0  0  0  0  0  0  0  0  0  0
  -14.5470   -4.4016    0.0000 H   0  0  0  0  0  0  0  0  0  0  0  0
  -13.6924   -3.0091    0.0000 H   0  0  0  0  0  0  0  0  0  0  0  0
  -14.4637   -5.2434    0.0000 H   0  0  0  0  0  0  0  0  0  0  0  0
  -12.8756   -8.8881    0.0000 H   0  0  0  0  0  0  0  0  0  0  0  0
  -11.7722   -7.3066    0.0000 H   0  0  0  0  0  0  0  0  0  0  0  0
  -13.5227  -10.4289    0.0000 H   0  0  0  0  0  0  0  0  0  0  0  0
  -16.3225   -8.7218    0.0000 H   0  0  0  0  0  0  0  0  0  0  0  0
  -18.9637  -10.9763    0.0000 H   0  0  0  0  0  0  0  0  0  0  0  0
  -17.5767  -11.8398    0.0000 H   0  0  0  0  0  0  0  0  0  0  0  0
  -17.1971   -8.3158    0.0000 H   0  0  0  0  0  0  0  0  0  0  0  0
  -20.9675   -8.1331    0.0000 H   0  0  0  0  0  0  0  0  0  0  0  0
  -21.3202   -9.8823    0.0000 H   0  0  0  0  0  0  0  0  0  0  0  0
  -19.7506  -10.7311    0.0000 H   0  0  0  0  0  0  0  0  0  0  0  0
  -20.2502   -7.1050    0.0000 H   0  0  0  0  0  0  0  0  0  0  0  0
  -18.7303   -6.1701    0.0000 H   0  0  0  0  0  0  0  0  0  0  0  0
  -17.3644   -7.5313    0.0000 H   0  0  0  0  0  0  0  0  0  0  0  0
  -18.9235  -11.6356    0.0000 H   0  0  0  0  0  0  0  0  0  0  0  0
  -16.2320  -13.6988    0.0000 H   0  0  0  0  0  0  0  0  0  0  0  0
  -16.4729  -16.5076    0.0000 H   0  0  0  0  0  0  0  0  0  0  0  0
  -15.9770  -14.6441    0.0000 H   0  0  0  0  0  0  0  0  0  0  0  0
  -18.0036  -17.7910    0.0000 H   0  0  0  0  0  0  0  0  0  0  0  0
  -19.7526  -16.9790    0.0000 H   0  0  0  0  0  0  0  0  0  0  0  0
  -19.6393  -15.5062    0.0000 H   0  0  0  0  0  0  0  0  0  0  0  0
  1  2  1  0
  2  3  1  0
  3  4  2  0
  4  5  1  0
  5  6  2  0
  6  7  1  0
  7  8  2  0
  7  9  1  0
  9 10  1  0
 10 11  1  0
 11 12  2  0
  9 13  1  0
 13 14  1  0
 14 15  2  0
 15 16  1  0
 16 17  2  0
 17 18  1  0
 16 19  1  0
 14 20  1  0
 20 21  1  0
 21 22  2  0
 22 23  1  0
 23 24  2  0
 24 25  1  0
 25 26  2  0
 25 27  1  0
  1 28  2  0
  1 29  1  0
 29 30  1  0
 30 31  1  0
 31 32  1  0
 32 33  1  0
 33 34  1  0
 34 35  1  0
 35 36  1  0
 36 37  1  0
 37 38  2  0
 37 39  1  0
 39 40  1  0
 40 41  1  0
 40 42  1  0
 42 43  2  0
 42 44  1  0
 44 45  1  0
 45 46  1  0
 46 47  1  0
 47 48  2  0
 48 49  1  0
 49 50  1  0
 50 51  2  0
 45 52  1  0
 52 53  2  0
 52 54  1  0
 54 55  1  0
 55 56  1  0
 56 57  1  0
 57 58  1  0
 57 59  1  0
 55 60  1  0
 60 61  2  0
 60 62  1  0
 63 62  1  6
 63 64  1  0
 64 65  1  0
 65 66  1  0
 66 67  1  0
 67 68  1  0
 68 69  1  0
 69 70  1  0
 63 71  1  0
 63 72  1  0
 72 73  2  0
 72 74  1  0
 74 75  1  0
 75 76  1  0
 76 77  1  0
 77 78  1  0
 77 79  1  0
 75 80  1  0
 80 81  2  0
 80 82  1  0
 82 83  1  0
 83 84  1  0
 84 85  1  0
 83 86  1  0
 86 87  2  0
 86 88  1  0
 88 89  1  0
 89 90  1  0
 90 91  1  0
 91 92  1  0
 91 93  1  0
 89 94  1  0
 94 95  2  0
 94 96  1  0
 96 97  1  0
 97 98  1  0
 98 99  1  0
 99100  1  0
100101  2  0
100102  1  0
 97103  1  0
103104  2  0
103105  1  0
105106  1  0
106107  1  0
107108  1  0
108109  1  0
109110  1  0
110111  1  0
106112  1  0
112113  2  0
112114  1  0
114115  1  0
115116  1  0
116117  1  0
117118  1  0
117119  1  0
115120  1  0
120121  2  0
120122  1  0
122123  1  0
123124  1  0
124125  1  0
125126  1  0
126127  1  0
123128  1  0
123129  1  1
129130  2  0
129131  1  0
131132  1  0
132133  1  0
133134  2  0
133135  1  0
135136  1  0
136137  1  0
137138  1  0
138139  1  0
138140  1  0
136141  1  0
141142  2  0
141143  1  0
143144  1  0
144145  1  0
145146  1  0
144147  1  0
147148  2  0
147149  1  0
  8  3  1  0
 51 47  1  0
 11  6  1  0
 18 13  2  0
 70127  2  0
 22  9  1  0
 26 21  1  0
  2150  1  0
  4151  1  0
  5152  1  0
  8153  1  0
 15154  1  0
 17155  1  0
 18156  1  0
 19157  1  0
 23158  1  0
 24159  1  0
 26160  1  0
 27161  1  0
 29162  1  0
 30163  1  0
 30164  1  0
 31165  1  0
 31166  1  0
 33167  1  0
 33168  1  0
 34169  1  0
 34170  1  0
 36171  1  0
 36172  1  0
 39173  1  0
 40174  1  1
 41175  1  0
 41176  1  0
 41177  1  0
 44178  1  0
 45179  1  1
 46180  1  0
 46181  1  0
 48182  1  0
 49183  1  0
 50184  1  0
 54185  1  0
 55186  1  1
 56187  1  0
 56188  1  0
 57189  1  0
 58190  1  0
 58191  1  0
 58192  1  0
 59193  1  0
 59194  1  0
 59195  1  0
 62196  1  0
 64197  1  0
 64198  1  0
 65199  1  0
 65200  1  0
 66201  1  0
 66202  1  0
 67203  1  0
 67204  1  0
 68205  1  0
 68206  1  0
 69207  1  0
 69208  1  0
 70209  1  0
 71210  1  0
 71211  1  0
 71212  1  0
 74213  1  0
 75214  1  6
 76215  1  0
 76216  1  0
 77217  1  0
 78218  1  0
 78219  1  0
 78220  1  0
 79221  1  0
 79222  1  0
 79223  1  0
 82224  1  0
 83225  1  6
 84226  1  0
 84227  1  0
 85228  1  0
 88229  1  0
 89230  1  6
 90231  1  0
 90232  1  0
 91233  1  0
 92234  1  0
 92235  1  0
 92236  1  0
 93237  1  0
 93238  1  0
 93239  1  0
 96240  1  0
 97241  1  6
 98242  1  0
 98243  1  0
 99244  1  0
 99245  1  0
105246  1  0
106247  1  6
107248  1  0
107249  1  0
108250  1  0
108251  1  0
109252  1  0
109253  1  0
110254  1  0
110255  1  0
111256  1  0
111257  1  0
111258  1  0
114259  1  0
115260  1  6
116261  1  0
116262  1  0
117263  1  0
118264  1  0
118265  1  0
118266  1  0
119267  1  0
119268  1  0
119269  1  0
122270  1  0
124271  1  0
124272  1  0
125273  1  0
125274  1  0
126275  1  0
126276  1  0
127277  1  0
128278  1  0
128279  1  0
128280  1  0
131281  1  0
132282  1  0
132283  1  0
135284  1  0
136285  1  6
137286  1  0
137287  1  0
138288  1  0
139289  1  0
139290  1  0
139291  1  0
140292  1  0
140293  1  0
140294  1  0
143295  1  0
144296  1  1
145297  1  0
145298  1  0
146299  1  0
146300  1  0
146301  1  0
M  CHG  3 102  -1 111   1 149  -1
M  END
