
     RDKit          2D

321327  0  0  0  0  0  0  0  0999 V2000
   21.1269   -3.0731    0.0000 C   0  0  0  0  0  0  0  0  0  0  0  0
   22.4433   -2.3540    0.0000 N   0  0  0  0  0  0  0  0  0  0  0  0
   23.7243   -3.1345    0.0000 C   0  0  0  0  0  0  0  0  0  0  0  0
   23.6888   -4.6341    0.0000 C   0  0  0  0  0  0  0  0  0  0  0  0
   24.9697   -5.4146    0.0000 C   0  0  0  0  0  0  0  0  0  0  0  0
   26.2861   -4.6955    0.0000 C   0  0  0  0  0  0  0  0  0  0  0  0
   26.3216   -3.1959    0.0000 C   0  0  0  0  0  0  0  0  0  0  0  0
   25.0407   -2.4154    0.0000 C   0  0  0  0  0  0  0  0  0  0  0  0
   27.7587   -2.7662    0.0000 C   0  0  0  0  0  0  0  0  0  0  0  0
   28.6115   -4.0003    0.0000 O   0  0  0  0  0  0  0  0  0  0  0  0
   27.7014   -5.1926    0.0000 C   0  0  0  0  0  0  0  0  0  0  0  0
   28.1311   -6.6298    0.0000 O   0  0  0  0  0  0  0  0  0  0  0  0
   29.2329   -2.4891    0.0000 C   0  0  0  0  0  0  0  0  0  0  0  0
   29.7300   -1.0739    0.0000 C   0  0  0  0  0  0  0  0  0  0  0  0
   31.2042   -0.7968    0.0000 C   0  0  0  0  0  0  0  0  0  0  0  0
   32.1813   -1.9349    0.0000 C   0  0  0  0  0  0  0  0  0  0  0  0
   31.6842   -3.3502    0.0000 C   0  0  0  0  0  0  0  0  0  0  0  0
   30.2100   -3.6273    0.0000 C   0  0  0  0  0  0  0  0  0  0  0  0
   33.6555   -1.6578    0.0000 O   0  0  0  0  0  0  0  0  0  0  0  0
   28.7530    0.0642    0.0000 O   0  0  0  0  0  0  0  0  0  0  0  0
   27.2788   -0.2129    0.0000 C   0  0  0  0  0  0  0  0  0  0  0  0
   26.7817   -1.6281    0.0000 C   0  0  0  0  0  0  0  0  0  0  0  0
   25.5395   -1.2448    0.0000 C   0  0  0  0  0  0  0  0  0  0  0  0
   25.0184   -0.6378    0.0000 C   0  0  0  0  0  0  0  0  0  0  0  0
   25.2835    0.1170    0.0000 C   0  0  0  0  0  0  0  0  0  0  0  0
   26.0697    0.2648    0.0000 C   0  0  0  0  0  0  0  0  0  0  0  0
   23.8505    1.7863    0.0000 O   0  0  0  0  0  0  0  0  0  0  0  0
   21.0914   -4.5727    0.0000 S   0  0  0  0  0  0  0  0  0  0  0  0
   19.8460   -2.2926    0.0000 N   0  0  0  0  0  0  0  0  0  0  0  0
   18.5296   -3.0117    0.0000 C   0  0  0  0  0  0  0  0  0  0  0  0
   17.2486   -2.2312    0.0000 C   0  0  0  0  0  0  0  0  0  0  0  0
   15.9322   -2.9503    0.0000 C   0  0  0  0  0  0  0  0  0  0  0  0
   16.1068   -3.7281    0.0000 O   0  0  0  0  0  0  0  0  0  0  0  0
   14.6513   -2.1698    0.0000 N   0  0  0  0  0  0  0  0  0  0  0  0
   13.3349   -2.8889    0.0000 C   0  0  0  0  0  0  0  0  0  0  0  0
   14.2716   -4.0604    0.0000 C   0  0  0  0  0  0  0  0  0  0  0  0
   15.7546   -3.8349    0.0000 C   0  0  0  0  0  0  0  0  0  0  0  0
   16.6913   -5.0064    0.0000 C   0  0  0  0  0  0  0  0  0  0  0  0
   18.1743   -4.7810    0.0000 C   0  0  0  0  0  0  0  0  0  0  0  0
   18.7205   -3.3839    0.0000 C   0  0  0  0  0  0  0  0  0  0  0  0
   17.7837   -2.2124    0.0000 C   0  0  0  0  0  0  0  0  0  0  0  0
   16.3008   -2.4379    0.0000 C   0  0  0  0  0  0  0  0  0  0  0  0
   11.8519   -3.1143    0.0000 C   0  0  0  0  0  0  0  0  0  0  0  0
   11.6600   -4.6020    0.0000 O   0  0  0  0  0  0  0  0  0  0  0  0
   10.9151   -1.9428    0.0000 N   0  0  0  0  0  0  0  0  0  0  0  0
    9.4322   -2.1683    0.0000 C   0  0  0  0  0  0  0  0  0  0  0  0
    9.9118   -3.5896    0.0000 C   0  0  0  0  0  0  0  0  0  0  0  0
   11.3824   -3.8849    0.0000 C   0  0  0  0  0  0  0  0  0  0  0  0
   11.8620   -5.3061    0.0000 N   0  0  0  0  0  0  0  0  0  0  0  0
   12.6165   -3.0322    0.0000 O   0  0  0  0  0  0  0  0  0  0  0  0
    7.9615   -1.8730    0.0000 C   0  0  0  0  0  0  0  0  0  0  0  0
    7.2724   -3.2053    0.0000 O   0  0  0  0  0  0  0  0  0  0  0  0
    7.4820   -0.4517    0.0000 N   0  0  0  0  0  0  0  0  0  0  0  0
    6.0113   -0.1564    0.0000 C   0  0  0  0  0  0  0  0  0  0  0  0
    5.9759   -1.6560    0.0000 C   0  0  0  0  0  0  0  0  0  0  0  0
    7.2568   -2.4365    0.0000 C   0  0  0  0  0  0  0  0  0  0  0  0
    5.4297   -3.0530    0.0000 C   0  0  0  0  0  0  0  0  0  0  0  0
    6.3664   -4.2245    0.0000 C   0  0  0  0  0  0  0  0  0  0  0  0
    4.7304    0.6241    0.0000 C   0  0  0  0  0  0  0  0  0  0  0  0
    3.6271   -0.3921    0.0000 O   0  0  0  0  0  0  0  0  0  0  0  0
    4.7658    2.1237    0.0000 N   0  0  0  0  0  0  0  0  0  0  0  0
    3.4849    2.9042    0.0000 C   0  0  0  0  0  0  0  0  0  0  0  0
    3.3544    1.4099    0.0000 C   0  0  0  0  0  0  0  0  0  0  0  0
    2.9435   -0.0327    0.0000 C   0  0  0  0  0  0  0  0  0  0  0  0
    2.2669   -1.3715    0.0000 C   0  0  0  0  0  0  0  0  0  0  0  0
    1.3493   -2.5580    0.0000 C   0  0  0  0  0  0  0  0  0  0  0  0
    0.2236   -3.5495    0.0000 C   0  0  0  0  0  0  0  0  0  0  0  0
   -1.0693   -4.3100    0.0000 C   0  0  0  0  0  0  0  0  0  0  0  0
   -2.4828   -4.8120    0.0000 C   0  0  0  0  0  0  0  0  0  0  0  0
    4.7530    3.7053    0.0000 C   0  0  0  0  0  0  0  0  0  0  0  0
    3.3302    4.3962    0.0000 C   0  0  0  0  0  0  0  0  0  0  0  0
    4.7538    4.8690    0.0000 O   0  0  0  0  0  0  0  0  0  0  0  0
    2.8960    5.8320    0.0000 N   0  0  0  0  0  0  0  0  0  0  0  0
    2.1979    7.1596    0.0000 C   0  0  0  0  0  0  0  0  0  0  0  0
    2.8316    8.5192    0.0000 C   0  0  0  0  0  0  0  0  0  0  0  0
    4.3259    8.6502    0.0000 C   0  0  0  0  0  0  0  0  0  0  0  0
    4.9596   10.0097    0.0000 O   0  0  0  0  0  0  0  0  0  0  0  0
    5.1864    7.4216    0.0000 O   0  0  0  0  0  0  0  0  0  0  0  0
    1.2611    8.3312    0.0000 C   0  0  0  0  0  0  0  0  0  0  0  0
    2.2031    9.4985    0.0000 O   0  0  0  0  0  0  0  0  0  0  0  0
    0.1196    9.3042    0.0000 N   0  0  0  0  0  0  0  0  0  0  0  0
   -1.1855   10.0437    0.0000 C   0  0  0  0  0  0  0  0  0  0  0  0
   -1.3874   11.5300    0.0000 C   0  0  0  0  0  0  0  0  0  0  0  0
   -0.2011   12.4481    0.0000 C   0  0  0  0  0  0  0  0  0  0  0  0
   -0.4031   13.9344    0.0000 C   0  0  0  0  0  0  0  0  0  0  0  0
    0.7832   14.8525    0.0000 N   0  0  0  0  0  0  0  0  0  0  0  0
    0.5813   16.3388    0.0000 C   0  0  0  0  0  0  0  0  0  0  0  0
    1.7675   17.2569    0.0000 N   0  0  0  0  0  0  0  0  0  0  0  0
   -0.8069   16.9071    0.0000 N   0  0  0  0  0  0  0  0  0  0  0  0
   -2.6069   10.5228    0.0000 C   0  0  0  0  0  0  0  0  0  0  0  0
   -2.4456   12.0141    0.0000 O   0  0  0  0  0  0  0  0  0  0  0  0
   -4.0933   10.7243    0.0000 N   0  0  0  0  0  0  0  0  0  0  0  0
   -5.5910   10.6408    0.0000 C   0  0  0  0  0  0  0  0  0  0  0  0
   -6.5644   11.7820    0.0000 C   0  0  0  0  0  0  0  0  0  0  0  0
   -5.8942   13.1240    0.0000 C   0  0  0  0  0  0  0  0  0  0  0  0
   -7.8695   12.5215    0.0000 C   0  0  0  0  0  0  0  0  0  0  0  0
   -7.8816   14.0214    0.0000 C   0  0  0  0  0  0  0  0  0  0  0  0
   -7.0458   10.2753    0.0000 C   0  0  0  0  0  0  0  0  0  0  0  0
   -7.5478   11.6888    0.0000 O   0  0  0  0  0  0  0  0  0  0  0  0
   -8.4051    9.6412    0.0000 N   0  0  0  0  0  0  0  0  0  0  0  0
   -9.6199    8.7612    0.0000 C   0  0  0  0  0  0  0  0  0  0  0  0
  -11.0558    9.1950    0.0000 C   0  0  0  0  0  0  0  0  0  0  0  0
  -11.3981   10.6554    0.0000 C   0  0  0  0  0  0  0  0  0  0  0  0
  -12.8340   11.0892    0.0000 C   0  0  0  0  0  0  0  0  0  0  0  0
  -13.1763   12.5496    0.0000 C   0  0  0  0  0  0  0  0  0  0  0  0
  -14.6123   12.9834    0.0000 N   0  0  0  0  0  0  0  0  0  0  0  0
  -10.6462    7.6673    0.0000 C   0  0  0  0  0  0  0  0  0  0  0  0
  -11.9358    8.4335    0.0000 O   0  0  0  0  0  0  0  0  0  0  0  0
  -11.4469    6.3989    0.0000 N   0  0  0  0  0  0  0  0  0  0  0  0
  -11.9931    5.0019    0.0000 C   0  0  0  0  0  0  0  0  0  0  0  0
  -13.4356    4.5905    0.0000 C   0  0  0  0  0  0  0  0  0  0  0  0
  -14.5132    5.6340    0.0000 C   0  0  0  0  0  0  0  0  0  0  0  0
  -15.9556    5.2226    0.0000 C   0  0  0  0  0  0  0  0  0  0  0  0
  -17.0332    6.2661    0.0000 O   0  0  0  0  0  0  0  0  0  0  0  0
  -16.3206    3.7677    0.0000 O   0  0  0  0  0  0  0  0  0  0  0  0
  -12.2651    3.5267    0.0000 C   0  0  0  0  0  0  0  0  0  0  0  0
  -13.7642    3.4741    0.0000 O   0  0  0  0  0  0  0  0  0  0  0  0
  -12.2530    2.0268    0.0000 N   0  0  0  0  0  0  0  0  0  0  0  0
  -11.9572    0.5562    0.0000 C   0  0  0  0  0  0  0  0  0  0  0  0
  -12.9482   -0.5697    0.0000 C   0  0  0  0  0  0  0  0  0  0  0  0
  -14.4189   -0.2744    0.0000 C   0  0  0  0  0  0  0  0  0  0  0  0
  -15.4100   -1.4003    0.0000 C   0  0  0  0  0  0  0  0  0  0  0  0
  -15.6998    0.5061    0.0000 C   0  0  0  0  0  0  0  0  0  0  0  0
  -11.3884   -0.8317    0.0000 C   0  0  0  0  0  0  0  0  0  0  0  0
  -12.6211   -1.6865    0.0000 O   0  0  0  0  0  0  0  0  0  0  0  0
  -10.5673   -2.0870    0.0000 N   0  0  0  0  0  0  0  0  0  0  0  0
   -9.5234   -3.1642    0.0000 C   0  0  0  0  0  0  0  0  0  0  0  0
   -8.2945   -4.0244    0.0000 C   0  0  0  0  0  0  0  0  0  0  0  0
   -6.9251   -4.6364    0.0000 C   0  0  0  0  0  0  0  0  0  0  0  0
   -5.4646   -4.9783    0.0000 C   0  0  0  0  0  0  0  0  0  0  0  0
   -3.9657   -5.0375    0.0000 C   0  0  0  0  0  0  0  0  0  0  0  0
  -10.9521   -3.6212    0.0000 C   0  0  0  0  0  0  0  0  0  0  0  0
   -9.7484   -4.6472    0.0000 C   0  0  0  0  0  0  0  0  0  0  0  0
   -8.8380   -5.8393    0.0000 O   0  0  0  0  0  0  0  0  0  0  0  0
  -11.1453   -5.1939    0.0000 N   0  0  0  0  0  0  0  0  0  0  0  0
  -11.3703   -6.6769    0.0000 C   0  0  0  0  0  0  0  0  0  0  0  0
  -11.0745   -8.1475    0.0000 C   0  0  0  0  0  0  0  0  0  0  0  0
  -10.2936   -9.4282    0.0000 O   0  0  0  0  0  0  0  0  0  0  0  0
  -12.0709   -9.2687    0.0000 C   0  0  0  0  0  0  0  0  0  0  0  0
  -12.7671   -7.2236    0.0000 C   0  0  0  0  0  0  0  0  0  0  0  0
  -13.9389   -6.2872    0.0000 O   0  0  0  0  0  0  0  0  0  0  0  0
  -12.9921   -8.7066    0.0000 N   0  0  0  0  0  0  0  0  0  0  0  0
  -14.3889   -9.2533    0.0000 C   0  0  0  0  0  0  0  0  0  0  0  0
  -15.8885   -9.2892    0.0000 C   0  0  0  0  0  0  0  0  0  0  0  0
  -16.6694   -8.0085    0.0000 C   0  0  0  0  0  0  0  0  0  0  0  0
  -18.1690   -8.0444    0.0000 C   0  0  0  0  0  0  0  0  0  0  0  0
  -18.9499   -6.7637    0.0000 N   0  0  0  0  0  0  0  0  0  0  0  0
  -20.4495   -6.7997    0.0000 C   0  0  0  0  0  0  0  0  0  0  0  0
  -21.2304   -5.5190    0.0000 N   0  0  0  0  0  0  0  0  0  0  0  0
  -21.1681   -8.1163    0.0000 N   0  0  0  0  0  0  0  0  0  0  0  0
  -14.6140  -10.7363    0.0000 C   0  0  0  0  0  0  0  0  0  0  0  0
  -13.4421  -11.6727    0.0000 O   0  0  0  0  0  0  0  0  0  0  0  0
  -16.0108  -11.2829    0.0000 N   0  0  0  0  0  0  0  0  0  0  0  0
  -16.2358  -12.7660    0.0000 C   0  0  0  0  0  0  0  0  0  0  0  0
  -15.9400  -14.2365    0.0000 C   0  0  0  0  0  0  0  0  0  0  0  0
  -17.0657  -15.2279    0.0000 C   0  0  0  0  0  0  0  0  0  0  0  0
  -15.1591  -15.5172    0.0000 C   0  0  0  0  0  0  0  0  0  0  0  0
  -13.6595  -15.4813    0.0000 C   0  0  0  0  0  0  0  0  0  0  0  0
  -17.6326  -13.3126    0.0000 C   0  0  0  0  0  0  0  0  0  0  0  0
  -18.0368  -14.7572    0.0000 O   0  0  0  0  0  0  0  0  0  0  0  0
  -18.8045  -12.3762    0.0000 O   0  0  0  0  0  0  0  0  0  0  0  0
   22.2957   -0.8613    0.0000 H   0  0  0  0  0  0  0  0  0  0  0  0
   22.3724   -5.3532    0.0000 H   0  0  0  0  0  0  0  0  0  0  0  0
   24.9343   -6.9142    0.0000 H   0  0  0  0  0  0  0  0  0  0  0  0
   24.7122   -0.9518    0.0000 H   0  0  0  0  0  0  0  0  0  0  0  0
   31.7013    0.6184    0.0000 H   0  0  0  0  0  0  0  0  0  0  0  0
   32.6612   -4.4883    0.0000 H   0  0  0  0  0  0  0  0  0  0  0  0
   29.7129   -5.0425    0.0000 H   0  0  0  0  0  0  0  0  0  0  0  0
   34.6325   -2.7960    0.0000 H   0  0  0  0  0  0  0  0  0  0  0  0
   24.8104   -3.3204    0.0000 H   0  0  0  0  0  0  0  0  0  0  0  0
   22.8335   -0.8624    0.0000 H   0  0  0  0  0  0  0  0  0  0  0  0
   26.7988    2.3405    0.0000 H   0  0  0  0  0  0  0  0  0  0  0  0
   24.3476    3.2015    0.0000 H   0  0  0  0  0  0  0  0  0  0  0  0
   19.8814   -0.7930    0.0000 H   0  0  0  0  0  0  0  0  0  0  0  0
   19.4663   -4.1832    0.0000 H   0  0  0  0  0  0  0  0  0  0  0  0
   17.5385   -4.1376    0.0000 H   0  0  0  0  0  0  0  0  0  0  0  0
   18.0950   -0.9928    0.0000 H   0  0  0  0  0  0  0  0  0  0  0  0
   16.3119   -1.0596    0.0000 H   0  0  0  0  0  0  0  0  0  0  0  0
   14.5037   -0.6771    0.0000 H   0  0  0  0  0  0  0  0  0  0  0  0
   12.8553   -1.4676    0.0000 H   0  0  0  0  0  0  0  0  0  0  0  0
   14.7512   -5.4817    0.0000 H   0  0  0  0  0  0  0  0  0  0  0  0
   13.0527   -4.9346    0.0000 H   0  0  0  0  0  0  0  0  0  0  0  0
   16.1451   -6.4035    0.0000 H   0  0  0  0  0  0  0  0  0  0  0  0
   19.1110   -5.9525    0.0000 H   0  0  0  0  0  0  0  0  0  0  0  0
   20.2034   -3.1585    0.0000 H   0  0  0  0  0  0  0  0  0  0  0  0
   18.4961   -0.8924    0.0000 H   0  0  0  0  0  0  0  0  0  0  0  0
   15.5138   -1.1609    0.0000 H   0  0  0  0  0  0  0  0  0  0  0  0
   11.4613   -0.5458    0.0000 H   0  0  0  0  0  0  0  0  0  0  0  0
    9.4676   -0.6687    0.0000 H   0  0  0  0  0  0  0  0  0  0  0  0
    9.8763   -5.0891    0.0000 H   0  0  0  0  0  0  0  0  0  0  0  0
    8.4288   -3.8150    0.0000 H   0  0  0  0  0  0  0  0  0  0  0  0
   13.2856   -5.7785    0.0000 H   0  0  0  0  0  0  0  0  0  0  0  0
   10.8709   -6.4321    0.0000 H   0  0  0  0  0  0  0  0  0  0  0  0
    8.4731    0.6743    0.0000 H   0  0  0  0  0  0  0  0  0  0  0  0
    6.5575    1.2406    0.0000 H   0  0  0  0  0  0  0  0  0  0  0  0
    4.5052   -1.3606    0.0000 H   0  0  0  0  0  0  0  0  0  0  0  0
    7.4044   -3.9292    0.0000 H   0  0  0  0  0  0  0  0  0  0  0  0
    8.7275   -2.7318    0.0000 H   0  0  0  0  0  0  0  0  0  0  0  0
    8.1581   -1.2429    0.0000 H   0  0  0  0  0  0  0  0  0  0  0  0
    4.4386   -4.1789    0.0000 H   0  0  0  0  0  0  0  0  0  0  0  0
    4.1487   -2.2725    0.0000 H   0  0  0  0  0  0  0  0  0  0  0  0
    5.8202   -5.6215    0.0000 H   0  0  0  0  0  0  0  0  0  0  0  0
    7.6474   -5.0050    0.0000 H   0  0  0  0  0  0  0  0  0  0  0  0
    7.6952   -3.5286    0.0000 H   0  0  0  0  0  0  0  0  0  0  0  0
    6.1601    2.6770    0.0000 H   0  0  0  0  0  0  0  0  0  0  0  0
    4.8420    1.6023    0.0000 H   0  0  0  0  0  0  0  0  0  0  0  0
    4.3332    0.2733    0.0000 H   0  0  0  0  0  0  0  0  0  0  0  0
    4.4182   -0.3071    0.0000 H   0  0  0  0  0  0  0  0  0  0  0  0
    3.8426   -1.2334    0.0000 H   0  0  0  0  0  0  0  0  0  0  0  0
    3.7669   -1.3832    0.0000 H   0  0  0  0  0  0  0  0  0  0  0  0
    3.0821   -2.6307    0.0000 H   0  0  0  0  0  0  0  0  0  0  0  0
    2.7730   -3.0304    0.0000 H   0  0  0  0  0  0  0  0  0  0  0  0
    1.9114   -3.9487    0.0000 H   0  0  0  0  0  0  0  0  0  0  0  0
    1.5322   -4.2828    0.0000 H   0  0  0  0  0  0  0  0  0  0  0  0
    0.5125   -5.0214    0.0000 H   0  0  0  0  0  0  0  0  0  0  0  0
    0.0768   -5.2776    0.0000 H   0  0  0  0  0  0  0  0  0  0  0  0
   -1.2471   -5.7994    0.0000 H   0  0  0  0  0  0  0  0  0  0  0  0
   -2.1173   -6.2668    0.0000 H   0  0  0  0  0  0  0  0  0  0  0  0
    6.1561    3.1747    0.0000 H   0  0  0  0  0  0  0  0  0  0  0  0
    5.8085    4.7712    0.0000 H   0  0  0  0  0  0  0  0  0  0  0  0
    4.0424    5.0263    0.0000 H   0  0  0  0  0  0  0  0  0  0  0  0
    4.2840    6.4007    0.0000 H   0  0  0  0  0  0  0  0  0  0  0  0
    3.6975    7.1956    0.0000 H   0  0  0  0  0  0  0  0  0  0  0  0
    3.1433    9.9864    0.0000 H   0  0  0  0  0  0  0  0  0  0  0  0
    1.5196    9.2463    0.0000 H   0  0  0  0  0  0  0  0  0  0  0  0
    1.1232   10.4191    0.0000 H   0  0  0  0  0  0  0  0  0  0  0  0
    0.1499   10.7270    0.0000 H   0  0  0  0  0  0  0  0  0  0  0  0
   -2.0855   12.8577    0.0000 H   0  0  0  0  0  0  0  0  0  0  0  0
   -2.8842   11.4324    0.0000 H   0  0  0  0  0  0  0  0  0  0  0  0
    1.2276   12.9051    0.0000 H   0  0  0  0  0  0  0  0  0  0  0  0
    0.7975   11.3288    0.0000 H   0  0  0  0  0  0  0  0  0  0  0  0
   -1.1012   15.2621    0.0000 H   0  0  0  0  0  0  0  0  0  0  0  0
   -1.8768   13.6550    0.0000 H   0  0  0  0  0  0  0  0  0  0  0  0
    2.1714   14.2842    0.0000 H   0  0  0  0  0  0  0  0  0  0  0  0
    1.5656   18.7432    0.0000 H   0  0  0  0  0  0  0  0  0  0  0  0
    3.1557   16.6886    0.0000 H   0  0  0  0  0  0  0  0  0  0  0  0
   -1.0088   18.3935    0.0000 H   0  0  0  0  0  0  0  0  0  0  0  0
   -1.9932   15.9891    0.0000 H   0  0  0  0  0  0  0  0  0  0  0  0
   -3.8518   12.2047    0.0000 H   0  0  0  0  0  0  0  0  0  0  0  0
   -4.8370   11.9375    0.0000 H   0  0  0  0  0  0  0  0  0  0  0  0
   -7.7708   10.8906    0.0000 H   0  0  0  0  0  0  0  0  0  0  0  0
   -6.8799   14.4670    0.0000 H   0  0  0  0  0  0  0  0  0  0  0  0
   -5.1080   14.3525    0.0000 H   0  0  0  0  0  0  0  0  0  0  0  0
   -4.6176   12.7939    0.0000 H   0  0  0  0  0  0  0  0  0  0  0  0
   -9.3488   12.7700    0.0000 H   0  0  0  0  0  0  0  0  0  0  0  0
   -8.5397   11.1795    0.0000 H   0  0  0  0  0  0  0  0  0  0  0  0
   -9.1867   14.7609    0.0000 H   0  0  0  0  0  0  0  0  0  0  0  0
   -7.3800   15.4350    0.0000 H   0  0  0  0  0  0  0  0  0  0  0  0
   -6.3862   14.1382    0.0000 H   0  0  0  0  0  0  0  0  0  0  0  0
   -9.1656   10.9341    0.0000 H   0  0  0  0  0  0  0  0  0  0  0  0
   -9.6867   10.2598    0.0000 H   0  0  0  0  0  0  0  0  0  0  0  0
  -12.5535    9.1115    0.0000 H   0  0  0  0  0  0  0  0  0  0  0  0
  -11.5888    7.7929    0.0000 H   0  0  0  0  0  0  0  0  0  0  0  0
  -11.0401   12.1121    0.0000 H   0  0  0  0  0  0  0  0  0  0  0  0
   -9.9652   11.0989    0.0000 H   0  0  0  0  0  0  0  0  0  0  0  0
  -14.3104   10.8238    0.0000 H   0  0  0  0  0  0  0  0  0  0  0  0
  -13.1921    9.6326    0.0000 H   0  0  0  0  0  0  0  0  0  0  0  0
  -12.9985   14.0391    0.0000 H   0  0  0  0  0  0  0  0  0  0  0  0
  -11.7000   12.8151    0.0000 H   0  0  0  0  0  0  0  0  0  0  0  0
  -14.9545   14.4438    0.0000 H   0  0  0  0  0  0  0  0  0  0  0  0
  -16.1099   12.8999    0.0000 H   0  0  0  0  0  0  0  0  0  0  0  0
  -14.9703   11.5268    0.0000 H   0  0  0  0  0  0  0  0  0  0  0  0
  -12.6933    7.2336    0.0000 H   0  0  0  0  0  0  0  0  0  0  0  0
  -12.8595    6.2264    0.0000 H   0  0  0  0  0  0  0  0  0  0  0  0
  -14.7486    3.8652    0.0000 H   0  0  0  0  0  0  0  0  0  0  0  0
  -13.1259    3.1228    0.0000 H   0  0  0  0  0  0  0  0  0  0  0  0
  -15.1688    6.9831    0.0000 H   0  0  0  0  0  0  0  0  0  0  0  0
  -13.5474    6.7818    0.0000 H   0  0  0  0  0  0  0  0  0  0  0  0
  -13.7527    2.0551    0.0000 H   0  0  0  0  0  0  0  0  0  0  0  0
  -13.3480    1.1180    0.0000 H   0  0  0  0  0  0  0  0  0  0  0  0
  -13.4944   -1.9667    0.0000 H   0  0  0  0  0  0  0  0  0  0  0  0
  -11.8942   -1.6370    0.0000 H   0  0  0  0  0  0  0  0  0  0  0  0
  -14.2269    1.2133    0.0000 H   0  0  0  0  0  0  0  0  0  0  0  0
  -16.9056   -1.2865    0.0000 H   0  0  0  0  0  0  0  0  0  0  0  0
  -15.9562   -2.7974    0.0000 H   0  0  0  0  0  0  0  0  0  0  0  0
  -14.2337   -2.3312    0.0000 H   0  0  0  0  0  0  0  0  0  0  0  0
  -17.0941   -0.0472    0.0000 H   0  0  0  0  0  0  0  0  0  0  0  0
  -16.6366    1.6776    0.0000 H   0  0  0  0  0  0  0  0  0  0  0  0
  -14.7088    1.6321    0.0000 H   0  0  0  0  0  0  0  0  0  0  0  0
  -11.8443   -2.8740    0.0000 H   0  0  0  0  0  0  0  0  0  0  0  0
   -8.2348   -5.5232    0.0000 H   0  0  0  0  0  0  0  0  0  0  0  0
   -9.3978   -5.0406    0.0000 H   0  0  0  0  0  0  0  0  0  0  0  0
   -6.7634   -6.1277    0.0000 H   0  0  0  0  0  0  0  0  0  0  0  0
   -7.8161   -5.8431    0.0000 H   0  0  0  0  0  0  0  0  0  0  0  0
   -4.8521   -6.3475    0.0000 H   0  0  0  0  0  0  0  0  0  0  0  0
   -6.2713   -6.2429    0.0000 H   0  0  0  0  0  0  0  0  0  0  0  0
   -3.8822   -6.5352    0.0000 H   0  0  0  0  0  0  0  0  0  0  0  0
  -11.6159   -4.9663    0.0000 H   0  0  0  0  0  0  0  0  0  0  0  0
  -12.4509   -3.5619    0.0000 H   0  0  0  0  0  0  0  0  0  0  0  0
  -11.5077   -2.2279    0.0000 H   0  0  0  0  0  0  0  0  0  0  0  0
  -12.4225   -4.4073    0.0000 H   0  0  0  0  0  0  0  0  0  0  0  0
   -9.8707   -6.6410    0.0000 H   0  0  0  0  0  0  0  0  0  0  0  0
   -9.6776   -7.6008    0.0000 H   0  0  0  0  0  0  0  0  0  0  0  0
   -8.7940   -9.3922    0.0000 H   0  0  0  0  0  0  0  0  0  0  0  0
  -11.9043  -10.6095    0.0000 H   0  0  0  0  0  0  0  0  0  0  0  0
  -13.5969   -9.6856    0.0000 H   0  0  0  0  0  0  0  0  0  0  0  0
  -13.4909   -8.3749    0.0000 H   0  0  0  0  0  0  0  0  0  0  0  0
  -11.9431   -9.7788    0.0000 H   0  0  0  0  0  0  0  0  0  0  0  0
  -14.5033   -7.7576    0.0000 H   0  0  0  0  0  0  0  0  0  0  0  0
  -17.2854   -9.8358    0.0000 H   0  0  0  0  0  0  0  0  0  0  0  0
  -15.9574  -10.7876    0.0000 H   0  0  0  0  0  0  0  0  0  0  0  0
  -16.9652   -6.5379    0.0000 H   0  0  0  0  0  0  0  0  0  0  0  0
  -15.3496   -7.2956    0.0000 H   0  0  0  0  0  0  0  0  0  0  0  0
  -19.5658   -8.5911    0.0000 H   0  0  0  0  0  0  0  0  0  0  0  0
  -18.0547   -9.5401    0.0000 H   0  0  0  0  0  0  0  0  0  0  0  0
  -18.2312   -5.4471    0.0000 H   0  0  0  0  0  0  0  0  0  0  0  0
  -22.7299   -5.5549    0.0000 H   0  0  0  0  0  0  0  0  0  0  0  0
  -20.5117   -4.2023    0.0000 H   0  0  0  0  0  0  0  0  0  0  0  0
  -22.6677   -8.1522    0.0000 H   0  0  0  0  0  0  0  0  0  0  0  0
  -20.3872   -9.3970    0.0000 H   0  0  0  0  0  0  0  0  0  0  0  0
  -17.2880  -10.4964    0.0000 H   0  0  0  0  0  0  0  0  0  0  0  0
  -14.7362  -12.7300    0.0000 H   0  0  0  0  0  0  0  0  0  0  0  0
  -14.6202  -13.5237    0.0000 H   0  0  0  0  0  0  0  0  0  0  0  0
  -16.9513  -16.7236    0.0000 H   0  0  0  0  0  0  0  0  0  0  0  0
  -18.4625  -15.7746    0.0000 H   0  0  0  0  0  0  0  0  0  0  0  0
  -18.2537  -14.3123    0.0000 H   0  0  0  0  0  0  0  0  0  0  0  0
  -14.8633  -16.9878    0.0000 H   0  0  0  0  0  0  0  0  0  0  0  0
  -16.4789  -16.2301    0.0000 H   0  0  0  0  0  0  0  0  0  0  0  0
  -12.8786  -16.7620    0.0000 H   0  0  0  0  0  0  0  0  0  0  0  0
  -12.2627  -14.9346    0.0000 H   0  0  0  0  0  0  0  0  0  0  0  0
  -13.7739  -13.9856    0.0000 H   0  0  0  0  0  0  0  0  0  0  0  0
  1  2  1  0
  2  3  1  0
  3  4  2  0
  4  5  1  0
  5  6  2  0
  6  7  1  0
  7  8  2  0
  7  9  1  0
  9 10  1  0
 10 11  1  0
 11 12  2  0
  9 13  1  0
 13 14  1  0
 14 15  2  0
 15 16  1  0
 16 17  2  0
 17 18  1  0
 16 19  1  0
 14 20  1  0
 20 21  1  0
 21 22  2  0
 22 23  1  0
 23 24  2  0
 24 25  1  0
 25 26  2  0
 25 27  1  0
  1 28  2  0
  1 29  1  0
 29 30  1  0
 30 31  1  0
 31 32  1  0
 32 33  2  0
 32 34  1  0
 34 35  1  0
 35 36  1  0
 36 37  1  0
 37 38  2  0
 38 39  1  0
 39 40  2  0
 40 41  1  0
 41 42  2  0
 35 43  1  0
 43 44  2  0
 43 45  1  0
 45 46  1  0
 46 47  1  0
 47 48  1  0
 48 49  1  0
 48 50  2  0
 46 51  1  0
 51 52  2  0
 51 53  1  0
 53 54  1  0
 54 55  1  0
 55 56  1  0
 55 57  1  0
 57 58  1  0
 54 59  1  0
 59 60  2  0
 59 61  1  0
 62 61  1  6
 62 63  1  0
 63 64  1  0
 64 65  1  0
 65 66  1  0
 66 67  1  0
 67 68  1  0
 68 69  1  0
 62 70  1  0
 62 71  1  0
 71 72  2  0
 71 73  1  0
 73 74  1  0
 74 75  1  0
 75 76  1  0
 76 77  2  0
 76 78  1  0
 74 79  1  0
 79 80  2  0
 79 81  1  0
 81 82  1  0
 82 83  1  0
 83 84  1  0
 84 85  1  0
 85 86  1  0
 86 87  1  0
 87 88  2  3
 87 89  1  0
 82 90  1  0
 90 91  2  0
 90 92  1  0
 92 93  1  0
 93 94  1  0
 94 95  1  0
 94 96  1  0
 96 97  1  0
 93 98  1  0
 98 99  2  0
 98100  1  0
100101  1  0
101102  1  0
102103  1  0
103104  1  0
104105  1  0
105106  1  0
101107  1  0
107108  2  0
107109  1  0
109110  1  0
110111  1  0
111112  1  0
112113  1  0
113114  2  0
113115  1  0
110116  1  0
116117  2  0
116118  1  0
118119  1  0
119120  1  0
120121  1  0
121122  1  0
121123  1  0
119124  1  0
124125  2  0
124126  1  0
126127  1  0
127128  1  0
128129  1  0
129130  1  0
130131  1  0
127132  1  0
127133  1  1
133134  2  0
133135  1  0
135136  1  0
136137  1  0
137138  1  0
137139  1  0
136140  1  0
140141  2  0
140142  1  0
142143  1  0
143144  1  0
144145  1  0
145146  1  0
146147  1  0
147148  1  0
148149  2  3
148150  1  0
143151  1  0
151152  2  0
151153  1  0
153154  1  0
154155  1  0
155156  1  0
155157  1  0
157158  1  0
154159  1  0
159160  2  0
159161  1  0
  8  3  1  0
 42 37  1  0
 11  6  1  0
 18 13  2  0
 69131  2  0
 22  9  1  0
 26 21  1  0
  2162  1  0
  4163  1  0
  5164  1  0
  8165  1  0
 15166  1  0
 17167  1  0
 18168  1  0
 19169  1  0
 23170  1  0
 24171  1  0
 26172  1  0
 27173  1  0
 29174  1  0
 30175  1  0
 30176  1  0
 31177  1  0
 31178  1  0
 34179  1  0
 35180  1  1
 36181  1  0
 36182  1  0
 38183  1  0
 39184  1  0
 40185  1  0
 41186  1  0
 42187  1  0
 45188  1  0
 46189  1  1
 47190  1  0
 47191  1  0
 49192  1  0
 49193  1  0
 53194  1  0
 54195  1  1
 55196  1  6
 56197  1  0
 56198  1  0
 56199  1  0
 57200  1  0
 57201  1  0
 58202  1  0
 58203  1  0
 58204  1  0
 61205  1  0
 63206  1  0
 63207  1  0
 64208  1  0
 64209  1  0
 65210  1  0
 65211  1  0
 66212  1  0
 66213  1  0
 67214  1  0
 67215  1  0
 68216  1  0
 68217  1  0
 69218  1  0
 70219  1  0
 70220  1  0
 70221  1  0
 73222  1  0
 74223  1  6
 75224  1  0
 75225  1  0
 81226  1  0
 82227  1  6
 83228  1  0
 83229  1  0
 84230  1  0
 84231  1  0
 85232  1  0
 85233  1  0
 86234  1  0
 88235  1  0
 88236  1  0
 89237  1  0
 89238  1  0
 92239  1  0
 93240  1  6
 94241  1  1
 95242  1  0
 95243  1  0
 95244  1  0
 96245  1  0
 96246  1  0
 97247  1  0
 97248  1  0
 97249  1  0
100250  1  0
101251  1  6
102252  1  0
102253  1  0
103254  1  0
103255  1  0
104256  1  0
104257  1  0
105258  1  0
105259  1  0
106260  1  0
106261  1  0
106262  1  0
109263  1  0
110264  1  6
111265  1  0
111266  1  0
112267  1  0
112268  1  0
118269  1  0
119270  1  6
120271  1  0
120272  1  0
121273  1  0
122274  1  0
122275  1  0
122276  1  0
123277  1  0
123278  1  0
123279  1  0
126280  1  0
128281  1  0
128282  1  0
129283  1  0
129284  1  0
130285  1  0
130286  1  0
131287  1  0
132288  1  0
132289  1  0
132290  1  0
135291  1  0
136292  1  1
137293  1  1
138294  1  0
139295  1  0
139296  1  0
139297  1  0
142298  1  0
143299  1  6
144300  1  0
144301  1  0
145302  1  0
145303  1  0
146304  1  0
146305  1  0
147306  1  0
149307  1  0
149308  1  0
150309  1  0
150310  1  0
153311  1  0
154312  1  1
155313  1  1
156314  1  0
156315  1  0
156316  1  0
157317  1  0
157318  1  0
158319  1  0
158320  1  0
158321  1  0
M  CHG  6  78  -1  88   1 106   1 115  -1 149   1 161  -1
M  END
