
     RDKit          2D

316322  0  0  0  0  0  0  0  0999 V2000
   20.8130   -2.8008    0.0000 C   0  0  0  0  0  0  0  0  0  0  0  0
   22.1159   -2.0575    0.0000 N   0  0  0  0  0  0  0  0  0  0  0  0
   23.4111   -2.8141    0.0000 C   0  0  0  0  0  0  0  0  0  0  0  0
   23.4034   -4.3141    0.0000 C   0  0  0  0  0  0  0  0  0  0  0  0
   24.6986   -5.0707    0.0000 C   0  0  0  0  0  0  0  0  0  0  0  0
   26.0015   -4.3274    0.0000 C   0  0  0  0  0  0  0  0  0  0  0  0
   26.0091   -2.8274    0.0000 C   0  0  0  0  0  0  0  0  0  0  0  0
   24.7139   -2.0708    0.0000 C   0  0  0  0  0  0  0  0  0  0  0  0
   27.4381   -2.3712    0.0000 C   0  0  0  0  0  0  0  0  0  0  0  0
   28.3135   -3.5892    0.0000 O   0  0  0  0  0  0  0  0  0  0  0  0
   27.4257   -4.7982    0.0000 C   0  0  0  0  0  0  0  0  0  0  0  0
   27.8819   -6.2271    0.0000 O   0  0  0  0  0  0  0  0  0  0  0  0
   28.9069   -2.0668    0.0000 C   0  0  0  0  0  0  0  0  0  0  0  0
   29.3777   -0.6426    0.0000 C   0  0  0  0  0  0  0  0  0  0  0  0
   30.8465   -0.3383    0.0000 C   0  0  0  0  0  0  0  0  0  0  0  0
   31.8445   -1.4581    0.0000 C   0  0  0  0  0  0  0  0  0  0  0  0
   31.3736   -2.8823    0.0000 C   0  0  0  0  0  0  0  0  0  0  0  0
   29.9048   -3.1867    0.0000 C   0  0  0  0  0  0  0  0  0  0  0  0
   33.3133   -1.1537    0.0000 O   0  0  0  0  0  0  0  0  0  0  0  0
   28.3797    0.4772    0.0000 O   0  0  0  0  0  0  0  0  0  0  0  0
   26.9109    0.1729    0.0000 C   0  0  0  0  0  0  0  0  0  0  0  0
   26.4401   -1.2513    0.0000 C   0  0  0  0  0  0  0  0  0  0  0  0
   25.1910   -0.8911    0.0000 C   0  0  0  0  0  0  0  0  0  0  0  0
   24.6587   -0.2938    0.0000 C   0  0  0  0  0  0  0  0  0  0  0  0
   24.9098    0.4657    0.0000 C   0  0  0  0  0  0  0  0  0  0  0  0
   25.6932    0.6281    0.0000 C   0  0  0  0  0  0  0  0  0  0  0  0
   23.4461    2.1082    0.0000 O   0  0  0  0  0  0  0  0  0  0  0  0
   20.8054   -4.3008    0.0000 S   0  0  0  0  0  0  0  0  0  0  0  0
   19.5179   -2.0442    0.0000 N   0  0  0  0  0  0  0  0  0  0  0  0
   18.2150   -2.7875    0.0000 C   0  0  0  0  0  0  0  0  0  0  0  0
   16.9198   -2.0309    0.0000 C   0  0  0  0  0  0  0  0  0  0  0  0
   15.6170   -2.7742    0.0000 C   0  0  0  0  0  0  0  0  0  0  0  0
   15.8059   -3.5487    0.0000 O   0  0  0  0  0  0  0  0  0  0  0  0
   14.3218   -2.0176    0.0000 N   0  0  0  0  0  0  0  0  0  0  0  0
   13.0189   -2.7610    0.0000 C   0  0  0  0  0  0  0  0  0  0  0  0
   13.9772   -3.9149    0.0000 C   0  0  0  0  0  0  0  0  0  0  0  0
   15.4557   -3.6620    0.0000 C   0  0  0  0  0  0  0  0  0  0  0  0
   16.4140   -4.8160    0.0000 C   0  0  0  0  0  0  0  0  0  0  0  0
   17.8925   -4.5631    0.0000 C   0  0  0  0  0  0  0  0  0  0  0  0
   18.4128   -3.1562    0.0000 C   0  0  0  0  0  0  0  0  0  0  0  0
   17.4545   -2.0022    0.0000 C   0  0  0  0  0  0  0  0  0  0  0  0
   15.9760   -2.2551    0.0000 C   0  0  0  0  0  0  0  0  0  0  0  0
   11.5404   -3.0139    0.0000 C   0  0  0  0  0  0  0  0  0  0  0  0
   11.3761   -4.5048    0.0000 O   0  0  0  0  0  0  0  0  0  0  0  0
   10.5821   -1.8599    0.0000 N   0  0  0  0  0  0  0  0  0  0  0  0
    9.1036   -2.1128    0.0000 C   0  0  0  0  0  0  0  0  0  0  0  0
    9.6094   -3.5249    0.0000 C   0  0  0  0  0  0  0  0  0  0  0  0
   11.0853   -3.7930    0.0000 C   0  0  0  0  0  0  0  0  0  0  0  0
   11.5911   -5.2051    0.0000 N   0  0  0  0  0  0  0  0  0  0  0  0
   12.3033   -2.9176    0.0000 O   0  0  0  0  0  0  0  0  0  0  0  0
    7.6277   -1.8448    0.0000 C   0  0  0  0  0  0  0  0  0  0  0  0
    6.9633   -3.1896    0.0000 O   0  0  0  0  0  0  0  0  0  0  0  0
    7.1219   -0.4326    0.0000 N   0  0  0  0  0  0  0  0  0  0  0  0
    5.6460   -0.1646    0.0000 C   0  0  0  0  0  0  0  0  0  0  0  0
    5.6384   -1.6646    0.0000 C   0  0  0  0  0  0  0  0  0  0  0  0
    6.9336   -2.4212    0.0000 C   0  0  0  0  0  0  0  0  0  0  0  0
    5.1181   -3.0715    0.0000 C   0  0  0  0  0  0  0  0  0  0  0  0
    6.0764   -4.2255    0.0000 C   0  0  0  0  0  0  0  0  0  0  0  0
    4.3509    0.5920    0.0000 C   0  0  0  0  0  0  0  0  0  0  0  0
    3.2666   -0.4445    0.0000 O   0  0  0  0  0  0  0  0  0  0  0  0
    4.3585    2.0920    0.0000 N   0  0  0  0  0  0  0  0  0  0  0  0
    3.0633    2.8486    0.0000 C   0  0  0  0  0  0  0  0  0  0  0  0
    2.9606    1.3522    0.0000 C   0  0  0  0  0  0  0  0  0  0  0  0
    2.5764   -0.0978    0.0000 C   0  0  0  0  0  0  0  0  0  0  0  0
    1.9248   -1.4489    0.0000 C   0  0  0  0  0  0  0  0  0  0  0  0
    1.0293   -2.6522    0.0000 C   0  0  0  0  0  0  0  0  0  0  0  0
   -0.0778   -3.6643    0.0000 C   0  0  0  0  0  0  0  0  0  0  0  0
   -1.3564   -4.4486    0.0000 C   0  0  0  0  0  0  0  0  0  0  0  0
   -2.7604   -4.9768    0.0000 C   0  0  0  0  0  0  0  0  0  0  0  0
    4.3164    3.6731    0.0000 C   0  0  0  0  0  0  0  0  0  0  0  0
    2.8811    4.3375    0.0000 C   0  0  0  0  0  0  0  0  0  0  0  0
    4.2956    4.8367    0.0000 O   0  0  0  0  0  0  0  0  0  0  0  0
    2.4203    5.7650    0.0000 N   0  0  0  0  0  0  0  0  0  0  0  0
    1.6977    7.0795    0.0000 C   0  0  0  0  0  0  0  0  0  0  0  0
    2.3062    8.4506    0.0000 C   0  0  0  0  0  0  0  0  0  0  0  0
    3.7977    8.6092    0.0000 C   0  0  0  0  0  0  0  0  0  0  0  0
    4.4062    9.9803    0.0000 O   0  0  0  0  0  0  0  0  0  0  0  0
    4.6809    7.3968    0.0000 O   0  0  0  0  0  0  0  0  0  0  0  0
    0.7394    8.2335    0.0000 C   0  0  0  0  0  0  0  0  0  0  0  0
    1.6596    9.4181    0.0000 O   0  0  0  0  0  0  0  0  0  0  0  0
   -0.4199    9.1853    0.0000 N   0  0  0  0  0  0  0  0  0  0  0  0
   -1.7385    9.9004    0.0000 C   0  0  0  0  0  0  0  0  0  0  0  0
   -1.9679   11.3828    0.0000 C   0  0  0  0  0  0  0  0  0  0  0  0
   -0.7988   12.3226    0.0000 C   0  0  0  0  0  0  0  0  0  0  0  0
   -1.0283   13.8050    0.0000 C   0  0  0  0  0  0  0  0  0  0  0  0
    0.1408   14.7448    0.0000 N   0  0  0  0  0  0  0  0  0  0  0  0
   -0.0886   16.2272    0.0000 C   0  0  0  0  0  0  0  0  0  0  0  0
    1.0804   17.1671    0.0000 N   0  0  0  0  0  0  0  0  0  0  0  0
   -1.4871   16.7697    0.0000 N   0  0  0  0  0  0  0  0  0  0  0  0
   -3.1685   10.3531    0.0000 C   0  0  0  0  0  0  0  0  0  0  0  0
   -3.0349   11.8472    0.0000 O   0  0  0  0  0  0  0  0  0  0  0  0
   -4.6584   10.5270    0.0000 N   0  0  0  0  0  0  0  0  0  0  0  0
   -6.1543   10.4158    0.0000 C   0  0  0  0  0  0  0  0  0  0  0  0
   -7.1487   11.5388    0.0000 C   0  0  0  0  0  0  0  0  0  0  0  0
   -6.5035   12.8929    0.0000 C   0  0  0  0  0  0  0  0  0  0  0  0
   -8.4672   12.2539    0.0000 C   0  0  0  0  0  0  0  0  0  0  0  0
   -8.5072   13.7534    0.0000 C   0  0  0  0  0  0  0  0  0  0  0  0
   -7.6021   10.0235    0.0000 C   0  0  0  0  0  0  0  0  0  0  0  0
   -8.1302   11.4274    0.0000 O   0  0  0  0  0  0  0  0  0  0  0  0
   -8.9494    9.3642    0.0000 N   0  0  0  0  0  0  0  0  0  0  0  0
  -10.1477    8.4620    0.0000 C   0  0  0  0  0  0  0  0  0  0  0  0
  -11.5914    8.8691    0.0000 C   0  0  0  0  0  0  0  0  0  0  0  0
  -11.9607   10.3229    0.0000 C   0  0  0  0  0  0  0  0  0  0  0  0
  -13.4044   10.7300    0.0000 C   0  0  0  0  0  0  0  0  0  0  0  0
  -13.7737   12.1838    0.0000 C   0  0  0  0  0  0  0  0  0  0  0  0
  -15.2174   12.5909    0.0000 N   0  0  0  0  0  0  0  0  0  0  0  0
  -11.1536    7.3492    0.0000 C   0  0  0  0  0  0  0  0  0  0  0  0
  -12.4571    8.0914    0.0000 O   0  0  0  0  0  0  0  0  0  0  0  0
  -11.9307    6.0662    0.0000 N   0  0  0  0  0  0  0  0  0  0  0  0
  -12.4509    4.6593    0.0000 C   0  0  0  0  0  0  0  0  0  0  0  0
  -13.8855    4.2212    0.0000 C   0  0  0  0  0  0  0  0  0  0  0  0
  -14.9822    5.2446    0.0000 C   0  0  0  0  0  0  0  0  0  0  0  0
  -16.4168    4.8066    0.0000 C   0  0  0  0  0  0  0  0  0  0  0  0
  -17.5135    5.8300    0.0000 O   0  0  0  0  0  0  0  0  0  0  0  0
  -16.7547    3.3451    0.0000 O   0  0  0  0  0  0  0  0  0  0  0  0
  -12.6955    3.1793    0.0000 C   0  0  0  0  0  0  0  0  0  0  0  0
  -14.1933    3.0990    0.0000 O   0  0  0  0  0  0  0  0  0  0  0  0
  -12.6556    1.6799    0.0000 N   0  0  0  0  0  0  0  0  0  0  0  0
  -12.3326    0.2151    0.0000 C   0  0  0  0  0  0  0  0  0  0  0  0
  -13.3026   -0.9291    0.0000 C   0  0  0  0  0  0  0  0  0  0  0  0
  -14.7785   -0.6610    0.0000 C   0  0  0  0  0  0  0  0  0  0  0  0
  -15.7485   -1.8052    0.0000 C   0  0  0  0  0  0  0  0  0  0  0  0
  -16.0737    0.0956    0.0000 C   0  0  0  0  0  0  0  0  0  0  0  0
  -11.7382   -1.1622    0.0000 C   0  0  0  0  0  0  0  0  0  0  0  0
  -12.9548   -2.0396    0.0000 O   0  0  0  0  0  0  0  0  0  0  0  0
  -10.8940   -2.4020    0.0000 N   0  0  0  0  0  0  0  0  0  0  0  0
   -9.8303   -3.4597    0.0000 C   0  0  0  0  0  0  0  0  0  0  0  0
   -8.5857   -4.2969    0.0000 C   0  0  0  0  0  0  0  0  0  0  0  0
   -7.2052   -4.8835    0.0000 C   0  0  0  0  0  0  0  0  0  0  0  0
   -5.7386   -5.1982    0.0000 C   0  0  0  0  0  0  0  0  0  0  0  0
   -4.2389   -5.2297    0.0000 C   0  0  0  0  0  0  0  0  0  0  0  0
  -11.2503   -3.9430    0.0000 C   0  0  0  0  0  0  0  0  0  0  0  0
  -10.0278   -4.9466    0.0000 C   0  0  0  0  0  0  0  0  0  0  0  0
   -9.0955   -6.1217    0.0000 O   0  0  0  0  0  0  0  0  0  0  0  0
  -11.4143   -5.5190    0.0000 N   0  0  0  0  0  0  0  0  0  0  0  0
  -11.6118   -7.0060    0.0000 C   0  0  0  0  0  0  0  0  0  0  0  0
  -11.2888   -8.4708    0.0000 C   0  0  0  0  0  0  0  0  0  0  0  0
  -10.4843   -9.7368    0.0000 O   0  0  0  0  0  0  0  0  0  0  0  0
  -12.2643   -9.6103    0.0000 C   0  0  0  0  0  0  0  0  0  0  0  0
  -12.9983   -7.5784    0.0000 C   0  0  0  0  0  0  0  0  0  0  0  0
  -14.1872   -6.6639    0.0000 O   0  0  0  0  0  0  0  0  0  0  0  0
  -13.1958   -9.0654    0.0000 N   0  0  0  0  0  0  0  0  0  0  0  0
  -14.5822   -9.6378    0.0000 C   0  0  0  0  0  0  0  0  0  0  0  0
  -16.0809   -9.7015    0.0000 C   0  0  0  0  0  0  0  0  0  0  0  0
  -16.8854   -8.4355    0.0000 C   0  0  0  0  0  0  0  0  0  0  0  0
  -18.3840   -8.4992    0.0000 C   0  0  0  0  0  0  0  0  0  0  0  0
  -17.2084   -6.9707    0.0000 C   0  0  0  0  0  0  0  0  0  0  0  0
  -14.7797  -11.1247    0.0000 C   0  0  0  0  0  0  0  0  0  0  0  0
  -13.5908  -12.0392    0.0000 O   0  0  0  0  0  0  0  0  0  0  0  0
  -16.1662  -11.6972    0.0000 N   0  0  0  0  0  0  0  0  0  0  0  0
  -16.3637  -13.1841    0.0000 C   0  0  0  0  0  0  0  0  0  0  0  0
  -16.0407  -14.6489    0.0000 C   0  0  0  0  0  0  0  0  0  0  0  0
  -17.1478  -15.6610    0.0000 C   0  0  0  0  0  0  0  0  0  0  0  0
  -15.2362  -15.9149    0.0000 C   0  0  0  0  0  0  0  0  0  0  0  0
  -13.7376  -15.8512    0.0000 C   0  0  0  0  0  0  0  0  0  0  0  0
  -17.7502  -13.7565    0.0000 C   0  0  0  0  0  0  0  0  0  0  0  0
  -18.1275  -15.2083    0.0000 O   0  0  0  0  0  0  0  0  0  0  0  0
  -18.9392  -12.8420    0.0000 O   0  0  0  0  0  0  0  0  0  0  0  0
   21.9407   -0.5677    0.0000 H   0  0  0  0  0  0  0  0  0  0  0  0
   22.1006   -5.0574    0.0000 H   0  0  0  0  0  0  0  0  0  0  0  0
   24.6909   -6.5707    0.0000 H   0  0  0  0  0  0  0  0  0  0  0  0
   24.3584   -0.6135    0.0000 H   0  0  0  0  0  0  0  0  0  0  0  0
   31.3173    1.0859    0.0000 H   0  0  0  0  0  0  0  0  0  0  0  0
   32.3716   -4.0021    0.0000 H   0  0  0  0  0  0  0  0  0  0  0  0
   29.4340   -4.6109    0.0000 H   0  0  0  0  0  0  0  0  0  0  0  0
   34.3112   -2.2736    0.0000 H   0  0  0  0  0  0  0  0  0  0  0  0
   24.5005   -2.9799    0.0000 H   0  0  0  0  0  0  0  0  0  0  0  0
   22.4784   -0.5589    0.0000 H   0  0  0  0  0  0  0  0  0  0  0  0
   26.3837    2.7169    0.0000 H   0  0  0  0  0  0  0  0  0  0  0  0
   23.9170    3.5324    0.0000 H   0  0  0  0  0  0  0  0  0  0  0  0
   19.5255   -0.5442    0.0000 H   0  0  0  0  0  0  0  0  0  0  0  0
   19.1733   -3.9415    0.0000 H   0  0  0  0  0  0  0  0  0  0  0  0
   17.2450   -3.9317    0.0000 H   0  0  0  0  0  0  0  0  0  0  0  0
   17.7432   -0.7771    0.0000 H   0  0  0  0  0  0  0  0  0  0  0  0
   15.9615   -0.8769    0.0000 H   0  0  0  0  0  0  0  0  0  0  0  0
   14.1465   -0.5279    0.0000 H   0  0  0  0  0  0  0  0  0  0  0  0
   12.5131   -1.3488    0.0000 H   0  0  0  0  0  0  0  0  0  0  0  0
   14.4830   -5.3271    0.0000 H   0  0  0  0  0  0  0  0  0  0  0  0
   12.7747   -4.8116    0.0000 H   0  0  0  0  0  0  0  0  0  0  0  0
   15.8938   -6.2229    0.0000 H   0  0  0  0  0  0  0  0  0  0  0  0
   18.8508   -5.7171    0.0000 H   0  0  0  0  0  0  0  0  0  0  0  0
   19.8913   -2.9033    0.0000 H   0  0  0  0  0  0  0  0  0  0  0  0
   18.1423   -0.6692    0.0000 H   0  0  0  0  0  0  0  0  0  0  0  0
   15.1655   -0.9929    0.0000 H   0  0  0  0  0  0  0  0  0  0  0  0
   11.1023   -0.4530    0.0000 H   0  0  0  0  0  0  0  0  0  0  0  0
    9.1112   -0.6128    0.0000 H   0  0  0  0  0  0  0  0  0  0  0  0
    9.6017   -5.0249    0.0000 H   0  0  0  0  0  0  0  0  0  0  0  0
    8.1309   -3.7779    0.0000 H   0  0  0  0  0  0  0  0  0  0  0  0
   13.0232   -5.6510    0.0000 H   0  0  0  0  0  0  0  0  0  0  0  0
   10.6210   -6.3492    0.0000 H   0  0  0  0  0  0  0  0  0  0  0  0
    8.0919    0.7115    0.0000 H   0  0  0  0  0  0  0  0  0  0  0  0
    6.1663    1.2423    0.0000 H   0  0  0  0  0  0  0  0  0  0  0  0
    4.1625   -1.3966    0.0000 H   0  0  0  0  0  0  0  0  0  0  0  0
    7.1088   -3.9109    0.0000 H   0  0  0  0  0  0  0  0  0  0  0  0
    8.4094   -2.6892    0.0000 H   0  0  0  0  0  0  0  0  0  0  0  0
    7.8126   -1.2112    0.0000 H   0  0  0  0  0  0  0  0  0  0  0  0
    4.1481   -4.2156    0.0000 H   0  0  0  0  0  0  0  0  0  0  0  0
    3.8230   -2.3148    0.0000 H   0  0  0  0  0  0  0  0  0  0  0  0
    5.5562   -5.6324    0.0000 H   0  0  0  0  0  0  0  0  0  0  0  0
    7.3716   -4.9821    0.0000 H   0  0  0  0  0  0  0  0  0  0  0  0
    7.3921   -3.5051    0.0000 H   0  0  0  0  0  0  0  0  0  0  0  0
    5.7423    2.6710    0.0000 H   0  0  0  0  0  0  0  0  0  0  0  0
    4.4443    1.5721    0.0000 H   0  0  0  0  0  0  0  0  0  0  0  0
    3.9603    0.2339    0.0000 H   0  0  0  0  0  0  0  0  0  0  0  0
    4.0559   -0.3448    0.0000 H   0  0  0  0  0  0  0  0  0  0  0  0
    3.4976   -1.2816    0.0000 H   0  0  0  0  0  0  0  0  0  0  0  0
    3.4247   -1.4327    0.0000 H   0  0  0  0  0  0  0  0  0  0  0  0
    2.7632   -2.6927    0.0000 H   0  0  0  0  0  0  0  0  0  0  0  0
    2.4615   -3.0981    0.0000 H   0  0  0  0  0  0  0  0  0  0  0  0
    1.6171   -4.0322    0.0000 H   0  0  0  0  0  0  0  0  0  0  0  0
    1.2441   -4.3732    0.0000 H   0  0  0  0  0  0  0  0  0  0  0  0
    0.2382   -5.1307    0.0000 H   0  0  0  0  0  0  0  0  0  0  0  0
   -0.1926   -5.3949    0.0000 H   0  0  0  0  0  0  0  0  0  0  0  0
   -1.5066   -5.9411    0.0000 H   0  0  0  0  0  0  0  0  0  0  0  0
   -2.3681   -6.4246    0.0000 H   0  0  0  0  0  0  0  0  0  0  0  0
    5.7290    3.1686    0.0000 H   0  0  0  0  0  0  0  0  0  0  0  0
    5.3520    4.7583    0.0000 H   0  0  0  0  0  0  0  0  0  0  0  0
    3.5814    4.9807    0.0000 H   0  0  0  0  0  0  0  0  0  0  0  0
    3.7975    6.3594    0.0000 H   0  0  0  0  0  0  0  0  0  0  0  0
    3.1964    7.1432    0.0000 H   0  0  0  0  0  0  0  0  0  0  0  0
    2.5906    9.9234    0.0000 H   0  0  0  0  0  0  0  0  0  0  0  0
    0.9809    9.1532    0.0000 H   0  0  0  0  0  0  0  0  0  0  0  0
    0.5628   10.3185    0.0000 H   0  0  0  0  0  0  0  0  0  0  0  0
   -0.4160   10.6083    0.0000 H   0  0  0  0  0  0  0  0  0  0  0  0
   -2.6905   12.6973    0.0000 H   0  0  0  0  0  0  0  0  0  0  0  0
   -3.4626   11.2574    0.0000 H   0  0  0  0  0  0  0  0  0  0  0  0
    0.6212   12.8060    0.0000 H   0  0  0  0  0  0  0  0  0  0  0  0
    0.2203   11.2221    0.0000 H   0  0  0  0  0  0  0  0  0  0  0  0
   -1.7508   15.1195    0.0000 H   0  0  0  0  0  0  0  0  0  0  0  0
   -2.4966   13.4983    0.0000 H   0  0  0  0  0  0  0  0  0  0  0  0
    1.5392   14.2024    0.0000 H   0  0  0  0  0  0  0  0  0  0  0  0
    0.8510   18.6494    0.0000 H   0  0  0  0  0  0  0  0  0  0  0  0
    2.4789   16.6246    0.0000 H   0  0  0  0  0  0  0  0  0  0  0  0
   -1.7165   18.2520    0.0000 H   0  0  0  0  0  0  0  0  0  0  0  0
   -2.6562   15.8298    0.0000 H   0  0  0  0  0  0  0  0  0  0  0  0
   -4.4444   12.0117    0.0000 H   0  0  0  0  0  0  0  0  0  0  0  0
   -5.4245   11.7263    0.0000 H   0  0  0  0  0  0  0  0  0  0  0  0
   -8.3384   10.6252    0.0000 H   0  0  0  0  0  0  0  0  0  0  0  0
   -7.5139   14.2175    0.0000 H   0  0  0  0  0  0  0  0  0  0  0  0
   -5.7401   14.1358    0.0000 H   0  0  0  0  0  0  0  0  0  0  0  0
   -5.2210   12.5866    0.0000 H   0  0  0  0  0  0  0  0  0  0  0  0
   -9.9509   12.4750    0.0000 H   0  0  0  0  0  0  0  0  0  0  0  0
   -9.1124   10.8998    0.0000 H   0  0  0  0  0  0  0  0  0  0  0  0
   -9.8257   14.4686    0.0000 H   0  0  0  0  0  0  0  0  0  0  0  0
   -8.0318   15.1761    0.0000 H   0  0  0  0  0  0  0  0  0  0  0  0
   -7.0141   13.8979    0.0000 H   0  0  0  0  0  0  0  0  0  0  0  0
   -9.7338   10.6429    0.0000 H   0  0  0  0  0  0  0  0  0  0  0  0
  -10.2423    9.9590    0.0000 H   0  0  0  0  0  0  0  0  0  0  0  0
  -13.0873    8.7578    0.0000 H   0  0  0  0  0  0  0  0  0  0  0  0
  -12.0983    7.4573    0.0000 H   0  0  0  0  0  0  0  0  0  0  0  0
  -11.6297   11.7859    0.0000 H   0  0  0  0  0  0  0  0  0  0  0  0
  -10.5362   10.7928    0.0000 H   0  0  0  0  0  0  0  0  0  0  0  0
  -14.8756   10.4372    0.0000 H   0  0  0  0  0  0  0  0  0  0  0  0
  -13.7354    9.2670    0.0000 H   0  0  0  0  0  0  0  0  0  0  0  0
  -13.6235   13.6763    0.0000 H   0  0  0  0  0  0  0  0  0  0  0  0
  -12.3025   12.4766    0.0000 H   0  0  0  0  0  0  0  0  0  0  0  0
  -15.5867   14.0447    0.0000 H   0  0  0  0  0  0  0  0  0  0  0  0
  -16.7133   12.4797    0.0000 H   0  0  0  0  0  0  0  0  0  0  0  0
  -15.5484   11.1279    0.0000 H   0  0  0  0  0  0  0  0  0  0  0  0
  -13.1922    6.8776    0.0000 H   0  0  0  0  0  0  0  0  0  0  0  0
  -13.3398    5.8675    0.0000 H   0  0  0  0  0  0  0  0  0  0  0  0
  -15.1848    3.4717    0.0000 H   0  0  0  0  0  0  0  0  0  0  0  0
  -13.5487    2.7595    0.0000 H   0  0  0  0  0  0  0  0  0  0  0  0
  -15.6627    6.5814    0.0000 H   0  0  0  0  0  0  0  0  0  0  0  0
  -14.0378    6.4100    0.0000 H   0  0  0  0  0  0  0  0  0  0  0  0
  -14.1556    1.6805    0.0000 H   0  0  0  0  0  0  0  0  0  0  0  0
  -13.7336    0.7509    0.0000 H   0  0  0  0  0  0  0  0  0  0  0  0
  -13.8229   -2.3360    0.0000 H   0  0  0  0  0  0  0  0  0  0  0  0
  -12.2290   -1.9766    0.0000 H   0  0  0  0  0  0  0  0  0  0  0  0
  -14.6141    0.8299    0.0000 H   0  0  0  0  0  0  0  0  0  0  0  0
  -17.2461   -1.7190    0.0000 H   0  0  0  0  0  0  0  0  0  0  0  0
  -16.2688   -3.2120    0.0000 H   0  0  0  0  0  0  0  0  0  0  0  0
  -14.5552   -2.7140    0.0000 H   0  0  0  0  0  0  0  0  0  0  0  0
  -17.4574   -0.4834    0.0000 H   0  0  0  0  0  0  0  0  0  0  0  0
  -17.0320    1.2496    0.0000 H   0  0  0  0  0  0  0  0  0  0  0  0
  -15.1036    1.2397    0.0000 H   0  0  0  0  0  0  0  0  0  0  0  0
  -12.1561   -3.2125    0.0000 H   0  0  0  0  0  0  0  0  0  0  0  0
   -8.4982   -5.7944    0.0000 H   0  0  0  0  0  0  0  0  0  0  0  0
   -9.6700   -5.3334    0.0000 H   0  0  0  0  0  0  0  0  0  0  0  0
   -7.0159   -6.3715    0.0000 H   0  0  0  0  0  0  0  0  0  0  0  0
   -8.0737   -6.1065    0.0000 H   0  0  0  0  0  0  0  0  0  0  0  0
   -5.1008   -6.5559    0.0000 H   0  0  0  0  0  0  0  0  0  0  0  0
   -6.5217   -6.4776    0.0000 H   0  0  0  0  0  0  0  0  0  0  0  0
   -4.1277   -6.7256    0.0000 H   0  0  0  0  0  0  0  0  0  0  0  0
  -11.8891   -5.3002    0.0000 H   0  0  0  0  0  0  0  0  0  0  0  0
  -12.7500   -3.9115    0.0000 H   0  0  0  0  0  0  0  0  0  0  0  0
  -11.8316   -2.5602    0.0000 H   0  0  0  0  0  0  0  0  0  0  0  0
  -12.7059   -4.7563    0.0000 H   0  0  0  0  0  0  0  0  0  0  0  0
  -10.1131   -6.9423    0.0000 H   0  0  0  0  0  0  0  0  0  0  0  0
   -9.9023   -7.8984    0.0000 H   0  0  0  0  0  0  0  0  0  0  0  0
   -8.9857   -9.6731    0.0000 H   0  0  0  0  0  0  0  0  0  0  0  0
  -12.0729  -10.9477    0.0000 H   0  0  0  0  0  0  0  0  0  0  0  0
  -13.7824  -10.0554    0.0000 H   0  0  0  0  0  0  0  0  0  0  0  0
  -13.7007   -8.7429    0.0000 H   0  0  0  0  0  0  0  0  0  0  0  0
  -12.1271  -10.1180    0.0000 H   0  0  0  0  0  0  0  0  0  0  0  0
  -14.7243   -8.1445    0.0000 H   0  0  0  0  0  0  0  0  0  0  0  0
  -17.4674  -10.2739    0.0000 H   0  0  0  0  0  0  0  0  0  0  0  0
  -16.1220  -11.2009    0.0000 H   0  0  0  0  0  0  0  0  0  0  0  0
  -15.5790   -7.6983    0.0000 H   0  0  0  0  0  0  0  0  0  0  0  0
  -19.3368   -7.3407    0.0000 H   0  0  0  0  0  0  0  0  0  0  0  0
  -19.7705   -9.0716    0.0000 H   0  0  0  0  0  0  0  0  0  0  0  0
  -18.2420   -9.9925    0.0000 H   0  0  0  0  0  0  0  0  0  0  0  0
  -18.5726   -6.3470    0.0000 H   0  0  0  0  0  0  0  0  0  0  0  0
  -17.0109   -5.4837    0.0000 H   0  0  0  0  0  0  0  0  0  0  0  0
  -15.7097   -6.9070    0.0000 H   0  0  0  0  0  0  0  0  0  0  0  0
  -17.4578  -10.9344    0.0000 H   0  0  0  0  0  0  0  0  0  0  0  0
  -14.8651  -13.1204    0.0000 H   0  0  0  0  0  0  0  0  0  0  0  0
  -14.7344  -13.9118    0.0000 H   0  0  0  0  0  0  0  0  0  0  0  0
  -17.0058  -17.1543    0.0000 H   0  0  0  0  0  0  0  0  0  0  0  0
  -18.5343  -16.2335    0.0000 H   0  0  0  0  0  0  0  0  0  0  0  0
  -18.3526  -14.7675    0.0000 H   0  0  0  0  0  0  0  0  0  0  0  0
  -14.9133  -17.3798    0.0000 H   0  0  0  0  0  0  0  0  0  0  0  0
  -16.5426  -16.6521    0.0000 H   0  0  0  0  0  0  0  0  0  0  0  0
  -12.9331  -17.1172    0.0000 H   0  0  0  0  0  0  0  0  0  0  0  0
  -12.3511  -15.2788    0.0000 H   0  0  0  0  0  0  0  0  0  0  0  0
  -13.8796  -14.3580    0.0000 H   0  0  0  0  0  0  0  0  0  0  0  0
  1  2  1  0
  2  3  1  0
  3  4  2  0
  4  5  1  0
  5  6  2  0
  6  7  1  0
  7  8  2  0
  7  9  1  0
  9 10  1  0
 10 11  1  0
 11 12  2  0
  9 13  1  0
 13 14  1  0
 14 15  2  0
 15 16  1  0
 16 17  2  0
 17 18  1  0
 16 19  1  0
 14 20  1  0
 20 21  1  0
 21 22  2  0
 22 23  1  0
 23 24  2  0
 24 25  1  0
 25 26  2  0
 25 27  1  0
  1 28  2  0
  1 29  1  0
 29 30  1  0
 30 31  1  0
 31 32  1  0
 32 33  2  0
 32 34  1  0
 34 35  1  0
 35 36  1  0
 36 37  1  0
 37 38  2  0
 38 39  1  0
 39 40  2  0
 40 41  1  0
 41 42  2  0
 35 43  1  0
 43 44  2  0
 43 45  1  0
 45 46  1  0
 46 47  1  0
 47 48  1  0
 48 49  1  0
 48 50  2  0
 46 51  1  0
 51 52  2  0
 51 53  1  0
 53 54  1  0
 54 55  1  0
 55 56  1  0
 55 57  1  0
 57 58  1  0
 54 59  1  0
 59 60  2  0
 59 61  1  0
 62 61  1  6
 62 63  1  0
 63 64  1  0
 64 65  1  0
 65 66  1  0
 66 67  1  0
 67 68  1  0
 68 69  1  0
 62 70  1  0
 62 71  1  0
 71 72  2  0
 71 73  1  0
 73 74  1  0
 74 75  1  0
 75 76  1  0
 76 77  2  0
 76 78  1  0
 74 79  1  0
 79 80  2  0
 79 81  1  0
 81 82  1  0
 82 83  1  0
 83 84  1  0
 84 85  1  0
 85 86  1  0
 86 87  1  0
 87 88  2  3
 87 89  1  0
 82 90  1  0
 90 91  2  0
 90 92  1  0
 92 93  1  0
 93 94  1  0
 94 95  1  0
 94 96  1  0
 96 97  1  0
 93 98  1  0
 98 99  2  0
 98100  1  0
100101  1  0
101102  1  0
102103  1  0
103104  1  0
104105  1  0
105106  1  0
101107  1  0
107108  2  0
107109  1  0
109110  1  0
110111  1  0
111112  1  0
112113  1  0
113114  2  0
113115  1  0
110116  1  0
116117  2  0
116118  1  0
118119  1  0
119120  1  0
120121  1  0
121122  1  0
121123  1  0
119124  1  0
124125  2  0
124126  1  0
126127  1  0
127128  1  0
128129  1  0
129130  1  0
130131  1  0
127132  1  0
127133  1  1
133134  2  0
133135  1  0
135136  1  0
136137  1  0
137138  1  0
137139  1  0
136140  1  0
140141  2  0
140142  1  0
142143  1  0
143144  1  0
144145  1  0
145146  1  0
145147  1  0
143148  1  0
148149  2  0
148150  1  0
150151  1  0
151152  1  0
152153  1  0
152154  1  0
154155  1  0
151156  1  0
156157  2  0
156158  1  0
  8  3  1  0
 42 37  1  0
 11  6  1  0
 18 13  2  0
 69131  2  0
 22  9  1  0
 26 21  1  0
  2159  1  0
  4160  1  0
  5161  1  0
  8162  1  0
 15163  1  0
 17164  1  0
 18165  1  0
 19166  1  0
 23167  1  0
 24168  1  0
 26169  1  0
 27170  1  0
 29171  1  0
 30172  1  0
 30173  1  0
 31174  1  0
 31175  1  0
 34176  1  0
 35177  1  1
 36178  1  0
 36179  1  0
 38180  1  0
 39181  1  0
 40182  1  0
 41183  1  0
 42184  1  0
 45185  1  0
 46186  1  1
 47187  1  0
 47188  1  0
 49189  1  0
 49190  1  0
 53191  1  0
 54192  1  1
 55193  1  6
 56194  1  0
 56195  1  0
 56196  1  0
 57197  1  0
 57198  1  0
 58199  1  0
 58200  1  0
 58201  1  0
 61202  1  0
 63203  1  0
 63204  1  0
 64205  1  0
 64206  1  0
 65207  1  0
 65208  1  0
 66209  1  0
 66210  1  0
 67211  1  0
 67212  1  0
 68213  1  0
 68214  1  0
 69215  1  0
 70216  1  0
 70217  1  0
 70218  1  0
 73219  1  0
 74220  1  6
 75221  1  0
 75222  1  0
 81223  1  0
 82224  1  6
 83225  1  0
 83226  1  0
 84227  1  0
 84228  1  0
 85229  1  0
 85230  1  0
 86231  1  0
 88232  1  0
 88233  1  0
 89234  1  0
 89235  1  0
 92236  1  0
 93237  1  6
 94238  1  1
 95239  1  0
 95240  1  0
 95241  1  0
 96242  1  0
 96243  1  0
 97244  1  0
 97245  1  0
 97246  1  0
100247  1  0
101248  1  6
102249  1  0
102250  1  0
103251  1  0
103252  1  0
104253  1  0
104254  1  0
105255  1  0
105256  1  0
106257  1  0
106258  1  0
106259  1  0
109260  1  0
110261  1  6
111262  1  0
111263  1  0
112264  1  0
112265  1  0
118266  1  0
119267  1  6
120268  1  0
120269  1  0
121270  1  0
122271  1  0
122272  1  0
122273  1  0
123274  1  0
123275  1  0
123276  1  0
126277  1  0
128278  1  0
128279  1  0
129280  1  0
129281  1  0
130282  1  0
130283  1  0
131284  1  0
132285  1  0
132286  1  0
132287  1  0
135288  1  0
136289  1  1
137290  1  1
138291  1  0
139292  1  0
139293  1  0
139294  1  0
142295  1  0
143296  1  6
144297  1  0
144298  1  0
145299  1  0
146300  1  0
146301  1  0
146302  1  0
147303  1  0
147304  1  0
147305  1  0
150306  1  0
151307  1  1
152308  1  1
153309  1  0
153310  1  0
153311  1  0
154312  1  0
154313  1  0
155314  1  0
155315  1  0
155316  1  0
M  CHG  5  78  -1  88   1 106   1 115  -1 158  -1
M  END
