
     RDKit          2D

306312  0  0  0  0  0  0  0  0999 V2000
   20.3212   -3.1890    0.0000 C   0  0  0  0  0  0  0  0  0  0  0  0
   21.6418   -2.4775    0.0000 N   0  0  0  0  0  0  0  0  0  0  0  0
   22.9182   -3.2654    0.0000 C   0  0  0  0  0  0  0  0  0  0  0  0
   22.8740   -4.7648    0.0000 C   0  0  0  0  0  0  0  0  0  0  0  0
   24.1504   -5.5527    0.0000 C   0  0  0  0  0  0  0  0  0  0  0  0
   25.4710   -4.8413    0.0000 C   0  0  0  0  0  0  0  0  0  0  0  0
   25.5151   -3.3419    0.0000 C   0  0  0  0  0  0  0  0  0  0  0  0
   24.2387   -2.5540    0.0000 C   0  0  0  0  0  0  0  0  0  0  0  0
   26.9547   -2.9206    0.0000 C   0  0  0  0  0  0  0  0  0  0  0  0
   27.8003   -4.1595    0.0000 O   0  0  0  0  0  0  0  0  0  0  0  0
   26.8833   -5.3466    0.0000 C   0  0  0  0  0  0  0  0  0  0  0  0
   27.3047   -6.7862    0.0000 O   0  0  0  0  0  0  0  0  0  0  0  0
   28.4305   -2.6520    0.0000 C   0  0  0  0  0  0  0  0  0  0  0  0
   28.9358   -1.2397    0.0000 C   0  0  0  0  0  0  0  0  0  0  0  0
   30.4116   -0.9711    0.0000 C   0  0  0  0  0  0  0  0  0  0  0  0
   31.3820   -2.1149    0.0000 C   0  0  0  0  0  0  0  0  0  0  0  0
   30.8767   -3.5272    0.0000 C   0  0  0  0  0  0  0  0  0  0  0  0
   29.4009   -3.7958    0.0000 C   0  0  0  0  0  0  0  0  0  0  0  0
   32.8578   -1.8463    0.0000 O   0  0  0  0  0  0  0  0  0  0  0  0
   27.9653   -0.0959    0.0000 O   0  0  0  0  0  0  0  0  0  0  0  0
   26.4896   -0.3645    0.0000 C   0  0  0  0  0  0  0  0  0  0  0  0
   25.9843   -1.7768    0.0000 C   0  0  0  0  0  0  0  0  0  0  0  0
   24.7443   -1.3863    0.0000 C   0  0  0  0  0  0  0  0  0  0  0  0
   24.2267   -0.7762    0.0000 C   0  0  0  0  0  0  0  0  0  0  0  0
   24.4962   -0.0230    0.0000 C   0  0  0  0  0  0  0  0  0  0  0  0
   25.2833    0.1202    0.0000 C   0  0  0  0  0  0  0  0  0  0  0  0
   23.0729    1.6545    0.0000 O   0  0  0  0  0  0  0  0  0  0  0  0
   20.2771   -4.6883    0.0000 S   0  0  0  0  0  0  0  0  0  0  0  0
   19.0448   -2.4011    0.0000 N   0  0  0  0  0  0  0  0  0  0  0  0
   17.7243   -3.1125    0.0000 C   0  0  0  0  0  0  0  0  0  0  0  0
   16.4479   -2.3246    0.0000 C   0  0  0  0  0  0  0  0  0  0  0  0
   15.1273   -3.0361    0.0000 C   0  0  0  0  0  0  0  0  0  0  0  0
   15.2974   -3.8149    0.0000 O   0  0  0  0  0  0  0  0  0  0  0  0
   13.8509   -2.2482    0.0000 N   0  0  0  0  0  0  0  0  0  0  0  0
   12.5304   -2.9596    0.0000 C   0  0  0  0  0  0  0  0  0  0  0  0
   13.4603   -4.1366    0.0000 C   0  0  0  0  0  0  0  0  0  0  0  0
   14.9446   -3.9197    0.0000 C   0  0  0  0  0  0  0  0  0  0  0  0
   15.8745   -5.0966    0.0000 N   0  0  0  0  0  0  0  0  0  0  0  0
   15.8196   -2.7014    0.0000 O   0  0  0  0  0  0  0  0  0  0  0  0
   11.0461   -3.1765    0.0000 C   0  0  0  0  0  0  0  0  0  0  0  0
   10.8456   -4.6631    0.0000 O   0  0  0  0  0  0  0  0  0  0  0  0
   10.1162   -1.9996    0.0000 N   0  0  0  0  0  0  0  0  0  0  0  0
    8.6319   -2.2165    0.0000 C   0  0  0  0  0  0  0  0  0  0  0  0
    9.1033   -3.6405    0.0000 C   0  0  0  0  0  0  0  0  0  0  0  0
   10.5722   -3.9443    0.0000 C   0  0  0  0  0  0  0  0  0  0  0  0
   11.0435   -5.3683    0.0000 C   0  0  0  0  0  0  0  0  0  0  0  0
   12.4644   -5.8490    0.0000 N   0  0  0  0  0  0  0  0  0  0  0  0
   10.0459   -6.4885    0.0000 O   0  0  0  0  0  0  0  0  0  0  0  0
    7.1630   -1.9126    0.0000 C   0  0  0  0  0  0  0  0  0  0  0  0
    6.4662   -3.2409    0.0000 O   0  0  0  0  0  0  0  0  0  0  0  0
    6.6917   -0.4886    0.0000 N   0  0  0  0  0  0  0  0  0  0  0  0
    5.2228   -0.1848    0.0000 C   0  0  0  0  0  0  0  0  0  0  0  0
    5.1787   -1.6841    0.0000 C   0  0  0  0  0  0  0  0  0  0  0  0
    6.4551   -2.4720    0.0000 C   0  0  0  0  0  0  0  0  0  0  0  0
    6.4109   -3.9714    0.0000 C   0  0  0  0  0  0  0  0  0  0  0  0
    7.9240   -2.7759    0.0000 C   0  0  0  0  0  0  0  0  0  0  0  0
    3.9464    0.6031    0.0000 C   0  0  0  0  0  0  0  0  0  0  0  0
    2.8372   -0.4067    0.0000 O   0  0  0  0  0  0  0  0  0  0  0  0
    3.9905    2.1025    0.0000 N   0  0  0  0  0  0  0  0  0  0  0  0
    2.7141    2.8904    0.0000 C   0  0  0  0  0  0  0  0  0  0  0  0
    2.5750    1.3968    0.0000 C   0  0  0  0  0  0  0  0  0  0  0  0
    2.1557   -0.0434    0.0000 C   0  0  0  0  0  0  0  0  0  0  0  0
    1.4714   -1.3782    0.0000 C   0  0  0  0  0  0  0  0  0  0  0  0
    0.5469   -2.5594    0.0000 C   0  0  0  0  0  0  0  0  0  0  0  0
   -0.5845   -3.5443    0.0000 C   0  0  0  0  0  0  0  0  0  0  0  0
   -1.8818   -4.2973    0.0000 C   0  0  0  0  0  0  0  0  0  0  0  0
   -3.2981   -4.7912    0.0000 C   0  0  0  0  0  0  0  0  0  0  0  0
    3.9869    3.6841    0.0000 C   0  0  0  0  0  0  0  0  0  0  0  0
    2.5681    4.3832    0.0000 C   0  0  0  0  0  0  0  0  0  0  0  0
    3.9943    4.8478    0.0000 O   0  0  0  0  0  0  0  0  0  0  0  0
    2.1422    5.8215    0.0000 N   0  0  0  0  0  0  0  0  0  0  0  0
    1.4518    7.1532    0.0000 C   0  0  0  0  0  0  0  0  0  0  0  0
    2.0934    8.5090    0.0000 C   0  0  0  0  0  0  0  0  0  0  0  0
    3.5884    8.6314    0.0000 C   0  0  0  0  0  0  0  0  0  0  0  0
    4.2299    9.9872    0.0000 C   0  0  0  0  0  0  0  0  0  0  0  0
    5.7249   10.1096    0.0000 N   0  0  0  0  0  0  0  0  0  0  0  0
    6.3665   11.4654    0.0000 C   0  0  0  0  0  0  0  0  0  0  0  0
    7.8615   11.5877    0.0000 N   0  0  0  0  0  0  0  0  0  0  0  0
    5.5131   12.6990    0.0000 N   0  0  0  0  0  0  0  0  0  0  0  0
    0.5218    8.3301    0.0000 C   0  0  0  0  0  0  0  0  0  0  0  0
    1.4705    9.4920    0.0000 O   0  0  0  0  0  0  0  0  0  0  0  0
   -0.6140    9.3098    0.0000 N   0  0  0  0  0  0  0  0  0  0  0  0
   -1.9148   10.0568    0.0000 C   0  0  0  0  0  0  0  0  0  0  0  0
   -2.1081   11.5443    0.0000 C   0  0  0  0  0  0  0  0  0  0  0  0
   -0.9166   12.4555    0.0000 O   0  0  0  0  0  0  0  0  0  0  0  0
   -3.3334   10.5441    0.0000 C   0  0  0  0  0  0  0  0  0  0  0  0
   -3.1635   12.0345    0.0000 O   0  0  0  0  0  0  0  0  0  0  0  0
   -4.8186   10.7542    0.0000 N   0  0  0  0  0  0  0  0  0  0  0  0
   -6.3168   10.6794    0.0000 C   0  0  0  0  0  0  0  0  0  0  0  0
   -7.2836   11.8262    0.0000 C   0  0  0  0  0  0  0  0  0  0  0  0
   -6.7738   13.2369    0.0000 C   0  0  0  0  0  0  0  0  0  0  0  0
   -5.2972   13.5008    0.0000 C   0  0  0  0  0  0  0  0  0  0  0  0
   -4.7874   14.9115    0.0000 C   0  0  0  0  0  0  0  0  0  0  0  0
   -5.7543   16.0584    0.0000 C   0  0  0  0  0  0  0  0  0  0  0  0
   -7.2309   15.7945    0.0000 C   0  0  0  0  0  0  0  0  0  0  0  0
   -7.7406   14.3838    0.0000 C   0  0  0  0  0  0  0  0  0  0  0  0
   -7.7737   10.3224    0.0000 C   0  0  0  0  0  0  0  0  0  0  0  0
   -8.4365   11.6680    0.0000 O   0  0  0  0  0  0  0  0  0  0  0  0
   -9.1367    9.6961    0.0000 N   0  0  0  0  0  0  0  0  0  0  0  0
  -10.3565    8.8232    0.0000 C   0  0  0  0  0  0  0  0  0  0  0  0
  -11.7899    9.2653    0.0000 C   0  0  0  0  0  0  0  0  0  0  0  0
  -12.1238   10.7277    0.0000 C   0  0  0  0  0  0  0  0  0  0  0  0
  -13.5571   11.1698    0.0000 C   0  0  0  0  0  0  0  0  0  0  0  0
  -13.8910   12.6322    0.0000 N   0  0  0  0  0  0  0  0  0  0  0  0
  -15.3243   13.0742    0.0000 C   0  0  0  0  0  0  0  0  0  0  0  0
  -15.6582   14.5366    0.0000 N   0  0  0  0  0  0  0  0  0  0  0  0
  -16.4239   12.0539    0.0000 N   0  0  0  0  0  0  0  0  0  0  0  0
  -11.3892    7.7352    0.0000 C   0  0  0  0  0  0  0  0  0  0  0  0
  -12.6743    8.5089    0.0000 O   0  0  0  0  0  0  0  0  0  0  0  0
  -12.1972    6.4715    0.0000 N   0  0  0  0  0  0  0  0  0  0  0  0
  -12.7515    5.0777    0.0000 C   0  0  0  0  0  0  0  0  0  0  0  0
  -14.1963    4.6746    0.0000 C   0  0  0  0  0  0  0  0  0  0  0  0
  -13.0320    3.6041    0.0000 C   0  0  0  0  0  0  0  0  0  0  0  0
  -14.5313    3.5602    0.0000 O   0  0  0  0  0  0  0  0  0  0  0  0
  -13.0285    2.1041    0.0000 N   0  0  0  0  0  0  0  0  0  0  0  0
  -12.7413    0.6319    0.0000 C   0  0  0  0  0  0  0  0  0  0  0  0
  -13.7389   -0.4883    0.0000 C   0  0  0  0  0  0  0  0  0  0  0  0
  -15.2078   -0.1845    0.0000 C   0  0  0  0  0  0  0  0  0  0  0  0
  -16.2053   -1.3047    0.0000 C   0  0  0  0  0  0  0  0  0  0  0  0
  -16.4842    0.6034    0.0000 C   0  0  0  0  0  0  0  0  0  0  0  0
  -12.1806   -0.7594    0.0000 C   0  0  0  0  0  0  0  0  0  0  0  0
  -13.4182   -1.6070    0.0000 O   0  0  0  0  0  0  0  0  0  0  0  0
  -11.3667   -2.0194    0.0000 N   0  0  0  0  0  0  0  0  0  0  0  0
  -10.3291   -3.1026    0.0000 C   0  0  0  0  0  0  0  0  0  0  0  0
   -9.1052   -3.9699    0.0000 C   0  0  0  0  0  0  0  0  0  0  0  0
   -7.7394   -4.5898    0.0000 C   0  0  0  0  0  0  0  0  0  0  0  0
   -6.2808   -4.9401    0.0000 C   0  0  0  0  0  0  0  0  0  0  0  0
   -4.7824   -5.0080    0.0000 C   0  0  0  0  0  0  0  0  0  0  0  0
  -11.7604   -3.5513    0.0000 C   0  0  0  0  0  0  0  0  0  0  0  0
  -10.5627   -4.5843    0.0000 C   0  0  0  0  0  0  0  0  0  0  0  0
   -9.6592   -5.7816    0.0000 O   0  0  0  0  0  0  0  0  0  0  0  0
  -11.9627   -5.1228    0.0000 N   0  0  0  0  0  0  0  0  0  0  0  0
  -12.1963   -6.6045    0.0000 C   0  0  0  0  0  0  0  0  0  0  0  0
  -11.9090   -8.0768    0.0000 C   0  0  0  0  0  0  0  0  0  0  0  0
  -13.0404   -9.0617    0.0000 C   0  0  0  0  0  0  0  0  0  0  0  0
  -12.7531  -10.5339    0.0000 O   0  0  0  0  0  0  0  0  0  0  0  0
  -14.5348   -8.9321    0.0000 O   0  0  0  0  0  0  0  0  0  0  0  0
  -13.5963   -7.1431    0.0000 C   0  0  0  0  0  0  0  0  0  0  0  0
  -14.7626   -6.2000    0.0000 O   0  0  0  0  0  0  0  0  0  0  0  0
  -13.8298   -8.6248    0.0000 N   0  0  0  0  0  0  0  0  0  0  0  0
  -15.2298   -9.1634    0.0000 C   0  0  0  0  0  0  0  0  0  0  0  0
  -16.7296   -9.1906    0.0000 C   0  0  0  0  0  0  0  0  0  0  0  0
  -17.4559  -10.5031    0.0000 C   0  0  0  0  0  0  0  0  0  0  0  0
  -18.9556  -10.5303    0.0000 C   0  0  0  0  0  0  0  0  0  0  0  0
  -19.8365  -11.7444    0.0000 N   0  0  0  0  0  0  0  0  0  0  0  0
  -19.7291   -9.2451    0.0000 O   0  0  0  0  0  0  0  0  0  0  0  0
  -15.4634  -10.6451    0.0000 C   0  0  0  0  0  0  0  0  0  0  0  0
  -14.2970  -11.5882    0.0000 O   0  0  0  0  0  0  0  0  0  0  0  0
  -16.8634  -11.1836    0.0000 N   0  0  0  0  0  0  0  0  0  0  0  0
  -17.0970  -12.6653    0.0000 C   0  0  0  0  0  0  0  0  0  0  0  0
  -16.8097  -14.1375    0.0000 C   0  0  0  0  0  0  0  0  0  0  0  0
  -17.9411  -15.1224    0.0000 C   0  0  0  0  0  0  0  0  0  0  0  0
  -16.0363  -15.4227    0.0000 C   0  0  0  0  0  0  0  0  0  0  0  0
  -14.5365  -15.3955    0.0000 C   0  0  0  0  0  0  0  0  0  0  0  0
  -18.4970  -13.2039    0.0000 C   0  0  0  0  0  0  0  0  0  0  0  0
  -18.9095  -14.6460    0.0000 O   0  0  0  0  0  0  0  0  0  0  0  0
  -19.7696  -12.4099    0.0000 O   0  0  0  0  0  0  0  0  0  0  0  0
   21.5028   -0.9840    0.0000 H   0  0  0  0  0  0  0  0  0  0  0  0
   21.5535   -5.4762    0.0000 H   0  0  0  0  0  0  0  0  0  0  0  0
   24.1063   -7.0520    0.0000 H   0  0  0  0  0  0  0  0  0  0  0  0
   23.9187   -1.0885    0.0000 H   0  0  0  0  0  0  0  0  0  0  0  0
   30.9169    0.4412    0.0000 H   0  0  0  0  0  0  0  0  0  0  0  0
   31.8472   -4.6710    0.0000 H   0  0  0  0  0  0  0  0  0  0  0  0
   28.8956   -5.2081    0.0000 H   0  0  0  0  0  0  0  0  0  0  0  0
   33.8282   -2.9901    0.0000 H   0  0  0  0  0  0  0  0  0  0  0  0
   24.0032   -3.4577    0.0000 H   0  0  0  0  0  0  0  0  0  0  0  0
   22.0406   -0.9882    0.0000 H   0  0  0  0  0  0  0  0  0  0  0  0
   26.0244    2.1916    0.0000 H   0  0  0  0  0  0  0  0  0  0  0  0
   23.5782    3.0669    0.0000 H   0  0  0  0  0  0  0  0  0  0  0  0
   19.0890   -0.9017    0.0000 H   0  0  0  0  0  0  0  0  0  0  0  0
   18.6542   -4.2895    0.0000 H   0  0  0  0  0  0  0  0  0  0  0  0
   16.8707   -4.3460    0.0000 H   0  0  0  0  0  0  0  0  0  0  0  0
   17.4454   -1.2044    0.0000 H   0  0  0  0  0  0  0  0  0  0  0  0
   15.5179   -1.1477    0.0000 H   0  0  0  0  0  0  0  0  0  0  0  0
   13.8951   -0.7488    0.0000 H   0  0  0  0  0  0  0  0  0  0  0  0
   12.0590   -1.5356    0.0000 H   0  0  0  0  0  0  0  0  0  0  0  0
   13.9316   -5.5606    0.0000 H   0  0  0  0  0  0  0  0  0  0  0  0
   12.2363   -5.0037    0.0000 H   0  0  0  0  0  0  0  0  0  0  0  0
   17.3741   -5.0623    0.0000 H   0  0  0  0  0  0  0  0  0  0  0  0
   15.3202   -6.4905    0.0000 H   0  0  0  0  0  0  0  0  0  0  0  0
   10.6705   -0.6057    0.0000 H   0  0  0  0  0  0  0  0  0  0  0  0
    8.8585   -0.7337    0.0000 H   0  0  0  0  0  0  0  0  0  0  0  0
    9.0591   -5.1398    0.0000 H   0  0  0  0  0  0  0  0  0  0  0  0
    7.7156   -4.2101    0.0000 H   0  0  0  0  0  0  0  0  0  0  0  0
   12.0564   -3.7274    0.0000 H   0  0  0  0  0  0  0  0  0  0  0  0
   10.9778   -2.5002    0.0000 H   0  0  0  0  0  0  0  0  0  0  0  0
   12.9837   -7.0962    0.0000 H   0  0  0  0  0  0  0  0  0  0  0  0
   13.7928   -4.8435    0.0000 H   0  0  0  0  0  0  0  0  0  0  0  0
    7.6893    0.6316    0.0000 H   0  0  0  0  0  0  0  0  0  0  0  0
    5.7771    1.2090    0.0000 H   0  0  0  0  0  0  0  0  0  0  0  0
    4.4586   -3.0000    0.0000 H   0  0  0  0  0  0  0  0  0  0  0  0
    3.7098   -1.3803    0.0000 H   0  0  0  0  0  0  0  0  0  0  0  0
    7.3301   -1.2537    0.0000 H   0  0  0  0  0  0  0  0  0  0  0  0
    7.4587   -5.0447    0.0000 H   0  0  0  0  0  0  0  0  0  0  0  0
    5.8566   -5.3652    0.0000 H   0  0  0  0  0  0  0  0  0  0  0  0
    4.9159   -3.8489    0.0000 H   0  0  0  0  0  0  0  0  0  0  0  0
    8.3953   -4.1999    0.0000 H   0  0  0  0  0  0  0  0  0  0  0  0
    9.4166   -2.9246    0.0000 H   0  0  0  0  0  0  0  0  0  0  0  0
    7.7850   -1.2823    0.0000 H   0  0  0  0  0  0  0  0  0  0  0  0
    5.3880    2.6476    0.0000 H   0  0  0  0  0  0  0  0  0  0  0  0
    4.0637    1.5806    0.0000 H   0  0  0  0  0  0  0  0  0  0  0  0
    3.5472    0.2546    0.0000 H   0  0  0  0  0  0  0  0  0  0  0  0
    3.6288   -0.3263    0.0000 H   0  0  0  0  0  0  0  0  0  0  0  0
    3.0478   -1.2492    0.0000 H   0  0  0  0  0  0  0  0  0  0  0  0
    2.9713   -1.3985    0.0000 H   0  0  0  0  0  0  0  0  0  0  0  0
    2.2793   -2.6420    0.0000 H   0  0  0  0  0  0  0  0  0  0  0  0
    1.9678   -3.0400    0.0000 H   0  0  0  0  0  0  0  0  0  0  0  0
    1.1010   -3.9533    0.0000 H   0  0  0  0  0  0  0  0  0  0  0  0
    0.7198   -4.2852    0.0000 H   0  0  0  0  0  0  0  0  0  0  0  0
   -0.3042   -5.0179    0.0000 H   0  0  0  0  0  0  0  0  0  0  0  0
   -0.7413   -5.2716    0.0000 H   0  0  0  0  0  0  0  0  0  0  0  0
   -2.0682   -5.7857    0.0000 H   0  0  0  0  0  0  0  0  0  0  0  0
   -2.9411   -6.2481    0.0000 H   0  0  0  0  0  0  0  0  0  0  0  0
    5.3868    3.1454    0.0000 H   0  0  0  0  0  0  0  0  0  0  0  0
    5.0485    4.7438    0.0000 H   0  0  0  0  0  0  0  0  0  0  0  0
    3.2839    5.0092    0.0000 H   0  0  0  0  0  0  0  0  0  0  0  0
    3.5914    6.2084    0.0000 H   0  0  0  0  0  0  0  0  0  0  0  0
    2.9437    6.9974    0.0000 H   0  0  0  0  0  0  0  0  0  0  0  0
    2.2325   10.0026    0.0000 H   0  0  0  0  0  0  0  0  0  0  0  0
    0.7856    9.2437    0.0000 H   0  0  0  0  0  0  0  0  0  0  0  0
    5.0350    8.2350    0.0000 H   0  0  0  0  0  0  0  0  0  0  0  0
    3.8148    7.1485    0.0000 H   0  0  0  0  0  0  0  0  0  0  0  0
    4.3691   11.4808    0.0000 H   0  0  0  0  0  0  0  0  0  0  0  0
    2.8424   10.5570    0.0000 H   0  0  0  0  0  0  0  0  0  0  0  0
    6.5784    8.8760    0.0000 H   0  0  0  0  0  0  0  0  0  0  0  0
    8.5031   12.9436    0.0000 H   0  0  0  0  0  0  0  0  0  0  0  0
    8.7150   10.3542    0.0000 H   0  0  0  0  0  0  0  0  0  0  0  0
    6.1547   14.0548    0.0000 H   0  0  0  0  0  0  0  0  0  0  0  0
    4.0181   12.5767    0.0000 H   0  0  0  0  0  0  0  0  0  0  0  0
    0.2532   10.5337    0.0000 H   0  0  0  0  0  0  0  0  0  0  0  0
   -0.6679   10.8906    0.0000 H   0  0  0  0  0  0  0  0  0  0  0  0
   -2.6310   12.9502    0.0000 H   0  0  0  0  0  0  0  0  0  0  0  0
   -3.6055   11.4553    0.0000 H   0  0  0  0  0  0  0  0  0  0  0  0
   -1.1099   13.9429    0.0000 H   0  0  0  0  0  0  0  0  0  0  0  0
   -4.5686   12.2332    0.0000 H   0  0  0  0  0  0  0  0  0  0  0  0
   -5.7186   12.0549    0.0000 H   0  0  0  0  0  0  0  0  0  0  0  0
   -8.4836   12.7262    0.0000 H   0  0  0  0  0  0  0  0  0  0  0  0
   -8.4951   10.9418    0.0000 H   0  0  0  0  0  0  0  0  0  0  0  0
   -4.1978   12.4804    0.0000 H   0  0  0  0  0  0  0  0  0  0  0  0
   -3.3108   15.1754    0.0000 H   0  0  0  0  0  0  0  0  0  0  0  0
   -5.2445   17.4691    0.0000 H   0  0  0  0  0  0  0  0  0  0  0  0
   -8.1977   16.9413    0.0000 H   0  0  0  0  0  0  0  0  0  0  0  0
   -9.2173   14.1199    0.0000 H   0  0  0  0  0  0  0  0  0  0  0  0
   -9.7259   11.0755    0.0000 H   0  0  0  0  0  0  0  0  0  0  0  0
  -10.4147   10.3221    0.0000 H   0  0  0  0  0  0  0  0  0  0  0  0
  -13.2881    9.1905    0.0000 H   0  0  0  0  0  0  0  0  0  0  0  0
  -12.3310    7.8663    0.0000 H   0  0  0  0  0  0  0  0  0  0  0  0
  -11.9373   12.2161    0.0000 H   0  0  0  0  0  0  0  0  0  0  0  0
  -10.6882   11.1628    0.0000 H   0  0  0  0  0  0  0  0  0  0  0  0
  -15.0553   11.0950    0.0000 H   0  0  0  0  0  0  0  0  0  0  0  0
  -13.9236    9.7152    0.0000 H   0  0  0  0  0  0  0  0  0  0  0  0
  -12.7914   13.6525    0.0000 H   0  0  0  0  0  0  0  0  0  0  0  0
  -17.0915   14.9787    0.0000 H   0  0  0  0  0  0  0  0  0  0  0  0
  -14.5586   15.5569    0.0000 H   0  0  0  0  0  0  0  0  0  0  0  0
  -17.8573   12.4960    0.0000 H   0  0  0  0  0  0  0  0  0  0  0  0
  -16.0900   10.5916    0.0000 H   0  0  0  0  0  0  0  0  0  0  0  0
  -13.5321    7.1558    0.0000 H   0  0  0  0  0  0  0  0  0  0  0  0
  -13.7542    6.1933    0.0000 H   0  0  0  0  0  0  0  0  0  0  0  0
  -15.2678    5.7244    0.0000 H   0  0  0  0  0  0  0  0  0  0  0  0
  -15.5135    3.9569    0.0000 H   0  0  0  0  0  0  0  0  0  0  0  0
  -13.8952    3.2052    0.0000 H   0  0  0  0  0  0  0  0  0  0  0  0
  -14.5281    2.1412    0.0000 H   0  0  0  0  0  0  0  0  0  0  0  0
  -14.1288    1.2017    0.0000 H   0  0  0  0  0  0  0  0  0  0  0  0
  -14.2931   -1.8821    0.0000 H   0  0  0  0  0  0  0  0  0  0  0  0
  -12.6910   -1.5616    0.0000 H   0  0  0  0  0  0  0  0  0  0  0  0
  -15.0072    1.3021    0.0000 H   0  0  0  0  0  0  0  0  0  0  0  0
  -17.7003   -1.1822    0.0000 H   0  0  0  0  0  0  0  0  0  0  0  0
  -16.7596   -2.6985    0.0000 H   0  0  0  0  0  0  0  0  0  0  0  0
  -15.0345   -2.2423    0.0000 H   0  0  0  0  0  0  0  0  0  0  0  0
  -17.8816    0.0583    0.0000 H   0  0  0  0  0  0  0  0  0  0  0  0
  -17.4141    1.7804    0.0000 H   0  0  0  0  0  0  0  0  0  0  0  0
  -15.4866    1.7236    0.0000 H   0  0  0  0  0  0  0  0  0  0  0  0
  -12.6482   -2.7989    0.0000 H   0  0  0  0  0  0  0  0  0  0  0  0
   -9.0542   -5.4690    0.0000 H   0  0  0  0  0  0  0  0  0  0  0  0
  -10.2144   -4.9797    0.0000 H   0  0  0  0  0  0  0  0  0  0  0  0
   -7.5863   -6.0820    0.0000 H   0  0  0  0  0  0  0  0  0  0  0  0
   -8.6373   -5.7913    0.0000 H   0  0  0  0  0  0  0  0  0  0  0  0
   -5.6763   -6.3129    0.0000 H   0  0  0  0  0  0  0  0  0  0  0  0
   -7.0949   -6.2000    0.0000 H   0  0  0  0  0  0  0  0  0  0  0  0
   -4.7075   -6.5062    0.0000 H   0  0  0  0  0  0  0  0  0  0  0  0
  -12.4320   -4.8925    0.0000 H   0  0  0  0  0  0  0  0  0  0  0  0
  -13.2589   -3.4833    0.0000 H   0  0  0  0  0  0  0  0  0  0  0  0
  -12.3079   -2.1548    0.0000 H   0  0  0  0  0  0  0  0  0  0  0  0
  -13.2353   -4.3289    0.0000 H   0  0  0  0  0  0  0  0  0  0  0  0
  -10.6965   -6.5773    0.0000 H   0  0  0  0  0  0  0  0  0  0  0  0
  -11.1355   -9.3620    0.0000 H   0  0  0  0  0  0  0  0  0  0  0  0
  -10.5090   -7.5382    0.0000 H   0  0  0  0  0  0  0  0  0  0  0  0
  -12.9263   -9.8222    0.0000 H   0  0  0  0  0  0  0  0  0  0  0  0
  -15.5171   -7.6911    0.0000 H   0  0  0  0  0  0  0  0  0  0  0  0
  -18.1482   -8.7033    0.0000 H   0  0  0  0  0  0  0  0  0  0  0  0
  -16.4960   -7.7089    0.0000 H   0  0  0  0  0  0  0  0  0  0  0  0
  -17.6895  -11.9848    0.0000 H   0  0  0  0  0  0  0  0  0  0  0  0
  -16.4322  -11.5995    0.0000 H   0  0  0  0  0  0  0  0  0  0  0  0
  -21.1816  -11.8700    0.0000 H   0  0  0  0  0  0  0  0  0  0  0  0
  -19.4660  -13.3687    0.0000 H   0  0  0  0  0  0  0  0  0  0  0  0
  -18.2234  -10.5507    0.0000 H   0  0  0  0  0  0  0  0  0  0  0  0
  -15.5972  -12.6381    0.0000 H   0  0  0  0  0  0  0  0  0  0  0  0
  -15.4858  -13.4324    0.0000 H   0  0  0  0  0  0  0  0  0  0  0  0
  -17.8354  -16.6187    0.0000 H   0  0  0  0  0  0  0  0  0  0  0  0
  -19.3411  -15.6610    0.0000 H   0  0  0  0  0  0  0  0  0  0  0  0
  -19.2275  -14.3509    0.0000 H   0  0  0  0  0  0  0  0  0  0  0  0
  -15.7490  -16.8950    0.0000 H   0  0  0  0  0  0  0  0  0  0  0  0
  -17.3602  -16.1279    0.0000 H   0  0  0  0  0  0  0  0  0  0  0  0
  -13.7630  -16.6807    0.0000 H   0  0  0  0  0  0  0  0  0  0  0  0
  -13.1365  -14.8569    0.0000 H   0  0  0  0  0  0  0  0  0  0  0  0
  -14.6422  -13.8992    0.0000 H   0  0  0  0  0  0  0  0  0  0  0  0
  1  2  1  0
  2  3  1  0
  3  4  2  0
  4  5  1  0
  5  6  2  0
  6  7  1  0
  7  8  2  0
  7  9  1  0
  9 10  1  0
 10 11  1  0
 11 12  2  0
  9 13  1  0
 13 14  1  0
 14 15  2  0
 15 16  1  0
 16 17  2  0
 17 18  1  0
 16 19  1  0
 14 20  1  0
 20 21  1  0
 21 22  2  0
 22 23  1  0
 23 24  2  0
 24 25  1  0
 25 26  2  0
 25 27  1  0
  1 28  2  0
  1 29  1  0
 29 30  1  0
 30 31  1  0
 31 32  1  0
 32 33  2  0
 32 34  1  0
 34 35  1  0
 35 36  1  0
 36 37  1  0
 37 38  1  0
 37 39  2  0
 35 40  1  0
 40 41  2  0
 40 42  1  0
 42 43  1  0
 43 44  1  0
 44 45  1  0
 45 46  1  0
 46 47  1  0
 46 48  2  0
 43 49  1  0
 49 50  2  0
 49 51  1  0
 51 52  1  0
 52 53  1  0
 53 54  1  0
 54 55  1  0
 54 56  1  0
 52 57  1  0
 57 58  2  0
 57 59  1  0
 60 59  1  6
 60 61  1  0
 61 62  1  0
 62 63  1  0
 63 64  1  0
 64 65  1  0
 65 66  1  0
 66 67  1  0
 60 68  1  0
 60 69  1  0
 69 70  2  0
 69 71  1  0
 71 72  1  0
 72 73  1  0
 73 74  1  0
 74 75  1  0
 75 76  1  0
 76 77  1  0
 77 78  2  3
 77 79  1  0
 72 80  1  0
 80 81  2  0
 80 82  1  0
 82 83  1  0
 83 84  1  0
 84 85  1  0
 83 86  1  0
 86 87  2  0
 86 88  1  0
 88 89  1  0
 89 90  1  0
 90 91  1  0
 91 92  2  0
 92 93  1  0
 93 94  2  0
 94 95  1  0
 95 96  2  0
 89 97  1  0
 97 98  2  0
 97 99  1  0
 99100  1  0
100101  1  0
101102  1  0
102103  1  0
103104  1  0
104105  1  0
105106  2  3
105107  1  0
100108  1  0
108109  2  0
108110  1  0
110111  1  0
111112  1  0
111113  1  0
113114  2  0
113115  1  0
115116  1  0
116117  1  0
117118  1  0
118119  1  0
118120  1  0
116121  1  0
121122  2  0
121123  1  0
123124  1  0
124125  1  0
125126  1  0
126127  1  0
127128  1  0
124129  1  0
124130  1  1
130131  2  0
130132  1  0
132133  1  0
133134  1  0
134135  1  0
135136  2  0
135137  1  0
133138  1  0
138139  2  0
138140  1  0
140141  1  0
141142  1  0
142143  1  0
143144  1  0
144145  1  0
144146  2  0
141147  1  0
147148  2  0
147149  1  0
149150  1  0
150151  1  0
151152  1  0
151153  1  0
153154  1  0
150155  1  0
155156  2  0
155157  1  0
  8  3  1  0
 96 91  1  0
 11  6  1  0
 18 13  2  0
 67128  2  0
 22  9  1  0
 26 21  1  0
  2158  1  0
  4159  1  0
  5160  1  0
  8161  1  0
 15162  1  0
 17163  1  0
 18164  1  0
 19165  1  0
 23166  1  0
 24167  1  0
 26168  1  0
 27169  1  0
 29170  1  0
 30171  1  0
 30172  1  0
 31173  1  0
 31174  1  0
 34175  1  0
 35176  1  1
 36177  1  0
 36178  1  0
 38179  1  0
 38180  1  0
 42181  1  0
 43182  1  1
 44183  1  0
 44184  1  0
 45185  1  0
 45186  1  0
 47187  1  0
 47188  1  0
 51189  1  0
 52190  1  1
 53191  1  0
 53192  1  0
 54193  1  0
 55194  1  0
 55195  1  0
 55196  1  0
 56197  1  0
 56198  1  0
 56199  1  0
 59200  1  0
 61201  1  0
 61202  1  0
 62203  1  0
 62204  1  0
 63205  1  0
 63206  1  0
 64207  1  0
 64208  1  0
 65209  1  0
 65210  1  0
 66211  1  0
 66212  1  0
 67213  1  0
 68214  1  0
 68215  1  0
 68216  1  0
 71217  1  0
 72218  1  6
 73219  1  0
 73220  1  0
 74221  1  0
 74222  1  0
 75223  1  0
 75224  1  0
 76225  1  0
 78226  1  0
 78227  1  0
 79228  1  0
 79229  1  0
 82230  1  0
 83231  1  6
 84232  1  0
 84233  1  0
 85234  1  0
 88235  1  0
 89236  1  6
 90237  1  0
 90238  1  0
 92239  1  0
 93240  1  0
 94241  1  0
 95242  1  0
 96243  1  0
 99244  1  0
100245  1  6
101246  1  0
101247  1  0
102248  1  0
102249  1  0
103250  1  0
103251  1  0
104252  1  0
106253  1  0
106254  1  0
107255  1  0
107256  1  0
110257  1  0
111258  1  6
112259  1  0
112260  1  0
112261  1  0
115262  1  0
116263  1  6
117264  1  0
117265  1  0
118266  1  0
119267  1  0
119268  1  0
119269  1  0
120270  1  0
120271  1  0
120272  1  0
123273  1  0
125274  1  0
125275  1  0
126276  1  0
126277  1  0
127278  1  0
127279  1  0
128280  1  0
129281  1  0
129282  1  0
129283  1  0
132284  1  0
133285  1  1
134286  1  0
134287  1  0
140288  1  0
141289  1  6
142290  1  0
142291  1  0
143292  1  0
143293  1  0
145294  1  0
145295  1  0
149296  1  0
150297  1  1
151298  1  1
152299  1  0
152300  1  0
152301  1  0
153302  1  0
153303  1  0
154304  1  0
154305  1  0
154306  1  0
M  CHG  4  78   1 106   1 137  -1 157  -1
M  END
