
     RDKit          2D

429435  0  0  0  0  0  0  0  0999 V2000
   30.2262   -7.4349    0.0000 C   0  0  0  0  0  0  0  0  0  0  0  0
   31.6245   -6.8918    0.0000 N   0  0  0  0  0  0  0  0  0  0  0  0
   32.7939   -7.8312    0.0000 C   0  0  0  0  0  0  0  0  0  0  0  0
   32.5651   -9.3136    0.0000 C   0  0  0  0  0  0  0  0  0  0  0  0
   33.7345  -10.2530    0.0000 C   0  0  0  0  0  0  0  0  0  0  0  0
   35.1327   -9.7099    0.0000 C   0  0  0  0  0  0  0  0  0  0  0  0
   35.3616   -8.2275    0.0000 C   0  0  0  0  0  0  0  0  0  0  0  0
   34.1921   -7.2881    0.0000 C   0  0  0  0  0  0  0  0  0  0  0  0
   36.8422   -7.9870    0.0000 C   0  0  0  0  0  0  0  0  0  0  0  0
   37.5284   -9.3208    0.0000 O   0  0  0  0  0  0  0  0  0  0  0  0
   36.4719  -10.3856    0.0000 C   0  0  0  0  0  0  0  0  0  0  0  0
   36.7124  -11.8662    0.0000 O   0  0  0  0  0  0  0  0  0  0  0  0
   38.3398   -7.9026    0.0000 C   0  0  0  0  0  0  0  0  0  0  0  0
   39.0155   -6.5634    0.0000 C   0  0  0  0  0  0  0  0  0  0  0  0
   40.5131   -6.4790    0.0000 C   0  0  0  0  0  0  0  0  0  0  0  0
   41.3350   -7.7338    0.0000 C   0  0  0  0  0  0  0  0  0  0  0  0
   40.6593   -9.0729    0.0000 C   0  0  0  0  0  0  0  0  0  0  0  0
   39.1617   -9.1573    0.0000 C   0  0  0  0  0  0  0  0  0  0  0  0
   42.8326   -7.6493    0.0000 O   0  0  0  0  0  0  0  0  0  0  0  0
   38.1936   -5.3086    0.0000 O   0  0  0  0  0  0  0  0  0  0  0  0
   36.6960   -5.3930    0.0000 C   0  0  0  0  0  0  0  0  0  0  0  0
   36.0202   -6.7322    0.0000 C   0  0  0  0  0  0  0  0  0  0  0  0
   34.8379   -6.1917    0.0000 C   0  0  0  0  0  0  0  0  0  0  0  0
   34.3996   -5.5225    0.0000 C   0  0  0  0  0  0  0  0  0  0  0  0
   34.7600   -4.8082    0.0000 C   0  0  0  0  0  0  0  0  0  0  0  0
   35.5587   -4.7632    0.0000 C   0  0  0  0  0  0  0  0  0  0  0  0
   33.5545   -2.9679    0.0000 O   0  0  0  0  0  0  0  0  0  0  0  0
   29.9974   -8.9173    0.0000 S   0  0  0  0  0  0  0  0  0  0  0  0
   29.0568   -6.4955    0.0000 N   0  0  0  0  0  0  0  0  0  0  0  0
   27.6585   -7.0386    0.0000 C   0  0  0  0  0  0  0  0  0  0  0  0
   26.4891   -6.0992    0.0000 C   0  0  0  0  0  0  0  0  0  0  0  0
   25.0909   -6.6422    0.0000 C   0  0  0  0  0  0  0  0  0  0  0  0
   25.1635   -7.4361    0.0000 O   0  0  0  0  0  0  0  0  0  0  0  0
   23.9214   -5.7029    0.0000 N   0  0  0  0  0  0  0  0  0  0  0  0
   22.5232   -6.2459    0.0000 C   0  0  0  0  0  0  0  0  0  0  0  0
   23.3008   -7.5286    0.0000 C   0  0  0  0  0  0  0  0  0  0  0  0
   24.8005   -7.4965    0.0000 C   0  0  0  0  0  0  0  0  0  0  0  0
   25.5781   -8.7792    0.0000 C   0  0  0  0  0  0  0  0  0  0  0  0
   26.1987   -6.9535    0.0000 C   0  0  0  0  0  0  0  0  0  0  0  0
   21.0235   -6.2780    0.0000 C   0  0  0  0  0  0  0  0  0  0  0  0
   20.6411   -7.7285    0.0000 O   0  0  0  0  0  0  0  0  0  0  0  0
   20.2459   -4.9953    0.0000 N   0  0  0  0  0  0  0  0  0  0  0  0
   18.7463   -5.0274    0.0000 C   0  0  0  0  0  0  0  0  0  0  0  0
   19.0383   -6.4987    0.0000 C   0  0  0  0  0  0  0  0  0  0  0  0
   20.4585   -6.9815    0.0000 C   0  0  0  0  0  0  0  0  0  0  0  0
   20.7505   -8.4528    0.0000 C   0  0  0  0  0  0  0  0  0  0  0  0
   21.9581   -6.9494    0.0000 C   0  0  0  0  0  0  0  0  0  0  0  0
   17.3261   -4.5447    0.0000 C   0  0  0  0  0  0  0  0  0  0  0  0
   16.4706   -5.7768    0.0000 O   0  0  0  0  0  0  0  0  0  0  0  0
   17.0341   -3.0734    0.0000 N   0  0  0  0  0  0  0  0  0  0  0  0
   15.6139   -2.5906    0.0000 C   0  0  0  0  0  0  0  0  0  0  0  0
   15.3851   -4.0731    0.0000 C   0  0  0  0  0  0  0  0  0  0  0  0
   16.5545   -5.0124    0.0000 C   0  0  0  0  0  0  0  0  0  0  0  0
   14.6630   -5.3879    0.0000 C   0  0  0  0  0  0  0  0  0  0  0  0
   15.4406   -6.6705    0.0000 C   0  0  0  0  0  0  0  0  0  0  0  0
   14.4444   -1.6512    0.0000 C   0  0  0  0  0  0  0  0  0  0  0  0
   13.2191   -2.5165    0.0000 O   0  0  0  0  0  0  0  0  0  0  0  0
   14.6732   -0.1688    0.0000 N   0  0  0  0  0  0  0  0  0  0  0  0
   13.5038    0.7706    0.0000 C   0  0  0  0  0  0  0  0  0  0  0  0
   12.7818   -0.5442    0.0000 C   0  0  0  0  0  0  0  0  0  0  0  0
   13.5594   -1.8269    0.0000 C   0  0  0  0  0  0  0  0  0  0  0  0
   12.8374   -3.1417    0.0000 C   0  0  0  0  0  0  0  0  0  0  0  0
   14.7288   -2.7663    0.0000 C   0  0  0  0  0  0  0  0  0  0  0  0
   12.7262    2.0533    0.0000 C   0  0  0  0  0  0  0  0  0  0  0  0
   11.3377    1.4858    0.0000 O   0  0  0  0  0  0  0  0  0  0  0  0
   13.4482    3.3681    0.0000 N   0  0  0  0  0  0  0  0  0  0  0  0
   12.6706    4.6508    0.0000 C   0  0  0  0  0  0  0  0  0  0  0  0
   11.8212    3.4144    0.0000 C   0  0  0  0  0  0  0  0  0  0  0  0
   10.6452    2.4833    0.0000 C   0  0  0  0  0  0  0  0  0  0  0  0
    9.2470    1.9402    0.0000 C   0  0  0  0  0  0  0  0  0  0  0  0
    7.7508    1.8334    0.0000 C   0  0  0  0  0  0  0  0  0  0  0  0
   14.1596    4.8320    0.0000 C   0  0  0  0  0  0  0  0  0  0  0  0
   13.1178    6.0825    0.0000 C   0  0  0  0  0  0  0  0  0  0  0  0
   14.6002    5.8537    0.0000 O   0  0  0  0  0  0  0  0  0  0  0  0
   13.1231    7.5825    0.0000 N   0  0  0  0  0  0  0  0  0  0  0  0
   12.6860    9.0174    0.0000 C   0  0  0  0  0  0  0  0  0  0  0  0
   13.4727   10.2946    0.0000 C   0  0  0  0  0  0  0  0  0  0  0  0
   14.9721   10.2519    0.0000 C   0  0  0  0  0  0  0  0  0  0  0  0
   15.7588   11.5291    0.0000 C   0  0  0  0  0  0  0  0  0  0  0  0
   17.2582   11.4864    0.0000 N   0  0  0  0  0  0  0  0  0  0  0  0
   15.0461   12.8489    0.0000 O   0  0  0  0  0  0  0  0  0  0  0  0
   11.8454   10.2598    0.0000 C   0  0  0  0  0  0  0  0  0  0  0  0
   12.9486   11.2762    0.0000 O   0  0  0  0  0  0  0  0  0  0  0  0
   10.6760   11.1992    0.0000 N   0  0  0  0  0  0  0  0  0  0  0  0
    9.2817   11.7521    0.0000 C   0  0  0  0  0  0  0  0  0  0  0  0
    8.7736   13.1635    0.0000 C   0  0  0  0  0  0  0  0  0  0  0  0
    7.7863   11.8695    0.0000 C   0  0  0  0  0  0  0  0  0  0  0  0
    7.6794   13.3657    0.0000 O   0  0  0  0  0  0  0  0  0  0  0  0
    6.3227   11.5409    0.0000 N   0  0  0  0  0  0  0  0  0  0  0  0
    5.0210   10.7955    0.0000 C   0  0  0  0  0  0  0  0  0  0  0  0
    3.6008   11.2782    0.0000 C   0  0  0  0  0  0  0  0  0  0  0  0
    3.4903   12.7742    0.0000 C   0  0  0  0  0  0  0  0  0  0  0  0
    3.9969    9.6995    0.0000 C   0  0  0  0  0  0  0  0  0  0  0  0
    3.0028   10.8228    0.0000 O   0  0  0  0  0  0  0  0  0  0  0  0
    3.3413    8.3504    0.0000 N   0  0  0  0  0  0  0  0  0  0  0  0
    3.1125    6.8679    0.0000 C   0  0  0  0  0  0  0  0  0  0  0  0
    3.3308    5.3839    0.0000 C   0  0  0  0  0  0  0  0  0  0  0  0
    3.9768    4.0302    0.0000 C   0  0  0  0  0  0  0  0  0  0  0  0
    4.9932    2.9270    0.0000 C   0  0  0  0  0  0  0  0  0  0  0  0
    6.2896    2.1724    0.0000 C   0  0  0  0  0  0  0  0  0  0  0  0
    2.8836    5.3855    0.0000 C   0  0  0  0  0  0  0  0  0  0  0  0
    2.2280    4.0363    0.0000 C   0  0  0  0  0  0  0  0  0  0  0  0
    1.2039    2.9404    0.0000 C   0  0  0  0  0  0  0  0  0  0  0  0
   -0.0978    2.1950    0.0000 C   0  0  0  0  0  0  0  0  0  0  0  0
    2.8941    8.3520    0.0000 C   0  0  0  0  0  0  0  0  0  0  0  0
    4.3291    8.7890    0.0000 O   0  0  0  0  0  0  0  0  0  0  0  0
    2.2481    9.7057    0.0000 N   0  0  0  0  0  0  0  0  0  0  0  0
    1.2317   10.8089    0.0000 C   0  0  0  0  0  0  0  0  0  0  0  0
    1.3864   12.3009    0.0000 C   0  0  0  0  0  0  0  0  0  0  0  0
    2.6710   13.0754    0.0000 C   0  0  0  0  0  0  0  0  0  0  0  0
   -0.0646   11.5635    0.0000 C   0  0  0  0  0  0  0  0  0  0  0  0
    0.4883   12.9578    0.0000 O   0  0  0  0  0  0  0  0  0  0  0  0
   -1.5258   11.9024    0.0000 N   0  0  0  0  0  0  0  0  0  0  0  0
   -3.0220   11.7956    0.0000 C   0  0  0  0  0  0  0  0  0  0  0  0
   -4.0921   12.8468    0.0000 C   0  0  0  0  0  0  0  0  0  0  0  0
   -3.5426   14.2425    0.0000 C   0  0  0  0  0  0  0  0  0  0  0  0
   -5.4572   13.4685    0.0000 C   0  0  0  0  0  0  0  0  0  0  0  0
   -5.6013   14.9616    0.0000 C   0  0  0  0  0  0  0  0  0  0  0  0
   -4.4203   11.2526    0.0000 C   0  0  0  0  0  0  0  0  0  0  0  0
   -5.3188   12.4537    0.0000 O   0  0  0  0  0  0  0  0  0  0  0  0
   -5.5963   10.3215    0.0000 N   0  0  0  0  0  0  0  0  0  0  0  0
   -6.4457    9.0851    0.0000 C   0  0  0  0  0  0  0  0  0  0  0  0
   -7.9347    8.9039    0.0000 C   0  0  0  0  0  0  0  0  0  0  0  0
   -8.8362   10.1028    0.0000 C   0  0  0  0  0  0  0  0  0  0  0  0
  -10.3252    9.9215    0.0000 C   0  0  0  0  0  0  0  0  0  0  0  0
   -9.2732   11.5377    0.0000 C   0  0  0  0  0  0  0  0  0  0  0  0
   -6.8929    7.6533    0.0000 C   0  0  0  0  0  0  0  0  0  0  0  0
   -8.3753    7.8821    0.0000 O   0  0  0  0  0  0  0  0  0  0  0  0
   -6.8982    6.1533    0.0000 N   0  0  0  0  0  0  0  0  0  0  0  0
   -6.4611    4.7184    0.0000 C   0  0  0  0  0  0  0  0  0  0  0  0
   -5.6205    3.4761    0.0000 C   0  0  0  0  0  0  0  0  0  0  0  0
   -4.4511    2.5367    0.0000 C   0  0  0  0  0  0  0  0  0  0  0  0
   -3.0567    1.9838    0.0000 C   0  0  0  0  0  0  0  0  0  0  0  0
   -1.5613    1.8664    0.0000 C   0  0  0  0  0  0  0  0  0  0  0  0
   -7.9488    4.9102    0.0000 C   0  0  0  0  0  0  0  0  0  0  0  0
   -7.2478    3.4413    0.0000 C   0  0  0  0  0  0  0  0  0  0  0  0
   -6.8756    1.9882    0.0000 O   0  0  0  0  0  0  0  0  0  0  0  0
   -8.7472    3.4840    0.0000 N   0  0  0  0  0  0  0  0  0  0  0  0
   -9.5339    2.2068    0.0000 C   0  0  0  0  0  0  0  0  0  0  0  0
   -9.8363    0.7376    0.0000 C   0  0  0  0  0  0  0  0  0  0  0  0
  -11.2599    0.2649    0.0000 C   0  0  0  0  0  0  0  0  0  0  0  0
  -11.5623   -1.2043    0.0000 C   0  0  0  0  0  0  0  0  0  0  0  0
  -12.7593    0.3076    0.0000 C   0  0  0  0  0  0  0  0  0  0  0  0
  -11.0333    2.2495    0.0000 C   0  0  0  0  0  0  0  0  0  0  0  0
  -11.7460    3.5694    0.0000 O   0  0  0  0  0  0  0  0  0  0  0  0
  -11.8199    0.9723    0.0000 N   0  0  0  0  0  0  0  0  0  0  0  0
  -13.3193    1.0150    0.0000 C   0  0  0  0  0  0  0  0  0  0  0  0
  -14.7137    1.5680    0.0000 C   0  0  0  0  0  0  0  0  0  0  0  0
  -14.9320    3.0520    0.0000 C   0  0  0  0  0  0  0  0  0  0  0  0
  -16.3264    3.6050    0.0000 C   0  0  0  0  0  0  0  0  0  0  0  0
  -16.5447    5.0890    0.0000 O   0  0  0  0  0  0  0  0  0  0  0  0
  -17.5024    2.6739    0.0000 O   0  0  0  0  0  0  0  0  0  0  0  0
  -14.1060   -0.2621    0.0000 C   0  0  0  0  0  0  0  0  0  0  0  0
  -13.5595   -1.6590    0.0000 O   0  0  0  0  0  0  0  0  0  0  0  0
  -15.6054   -0.2194    0.0000 N   0  0  0  0  0  0  0  0  0  0  0  0
  -16.3921   -1.4966    0.0000 C   0  0  0  0  0  0  0  0  0  0  0  0
  -16.6945   -2.9658    0.0000 C   0  0  0  0  0  0  0  0  0  0  0  0
  -18.1181   -3.4385    0.0000 C   0  0  0  0  0  0  0  0  0  0  0  0
  -18.4205   -4.9077    0.0000 C   0  0  0  0  0  0  0  0  0  0  0  0
  -19.7758   -5.5504    0.0000 N   0  0  0  0  0  0  0  0  0  0  0  0
  -17.2993   -5.9042    0.0000 O   0  0  0  0  0  0  0  0  0  0  0  0
  -17.8915   -1.4539    0.0000 C   0  0  0  0  0  0  0  0  0  0  0  0
  -18.6042   -0.1340    0.0000 O   0  0  0  0  0  0  0  0  0  0  0  0
  -18.6781   -2.7311    0.0000 N   0  0  0  0  0  0  0  0  0  0  0  0
  -20.1775   -2.6884    0.0000 C   0  0  0  0  0  0  0  0  0  0  0  0
  -21.5719   -2.1354    0.0000 C   0  0  0  0  0  0  0  0  0  0  0  0
  -21.7902   -0.6514    0.0000 C   0  0  0  0  0  0  0  0  0  0  0  0
  -23.1846   -0.0984    0.0000 C   0  0  0  0  0  0  0  0  0  0  0  0
  -23.4029    1.3856    0.0000 N   0  0  0  0  0  0  0  0  0  0  0  0
  -24.3606   -1.0295    0.0000 O   0  0  0  0  0  0  0  0  0  0  0  0
  -20.9642   -3.9655    0.0000 C   0  0  0  0  0  0  0  0  0  0  0  0
  -20.4177   -5.3624    0.0000 O   0  0  0  0  0  0  0  0  0  0  0  0
  -22.4636   -3.9228    0.0000 N   0  0  0  0  0  0  0  0  0  0  0  0
  -23.2503   -5.2000    0.0000 C   0  0  0  0  0  0  0  0  0  0  0  0
  -23.5527   -6.6692    0.0000 C   0  0  0  0  0  0  0  0  0  0  0  0
  -24.9080   -7.3119    0.0000 C   0  0  0  0  0  0  0  0  0  0  0  0
  -24.7497   -5.1573    0.0000 C   0  0  0  0  0  0  0  0  0  0  0  0
  -25.4624   -3.8374    0.0000 O   0  0  0  0  0  0  0  0  0  0  0  0
  -25.5363   -6.4344    0.0000 N   0  0  0  0  0  0  0  0  0  0  0  0
  -27.0357   -6.3917    0.0000 C   0  0  0  0  0  0  0  0  0  0  0  0
  -28.4301   -5.8388    0.0000 C   0  0  0  0  0  0  0  0  0  0  0  0
  -28.6484   -4.3548    0.0000 C   0  0  0  0  0  0  0  0  0  0  0  0
  -30.0428   -3.8018    0.0000 C   0  0  0  0  0  0  0  0  0  0  0  0
  -30.2611   -2.3178    0.0000 N   0  0  0  0  0  0  0  0  0  0  0  0
  -31.6555   -1.7648    0.0000 C   0  0  0  0  0  0  0  0  0  0  0  0
  -31.8738   -0.2808    0.0000 N   0  0  0  0  0  0  0  0  0  0  0  0
  -32.8315   -2.6959    0.0000 N   0  0  0  0  0  0  0  0  0  0  0  0
  -27.8224   -7.6689    0.0000 C   0  0  0  0  0  0  0  0  0  0  0  0
  -27.1097   -8.9888    0.0000 O   0  0  0  0  0  0  0  0  0  0  0  0
  -29.3218   -7.6262    0.0000 N   0  0  0  0  0  0  0  0  0  0  0  0
  -30.1085   -8.9034    0.0000 C   0  0  0  0  0  0  0  0  0  0  0  0
  -30.4109  -10.3726    0.0000 C   0  0  0  0  0  0  0  0  0  0  0  0
  -31.8345  -10.8453    0.0000 C   0  0  0  0  0  0  0  0  0  0  0  0
  -32.1369  -12.3145    0.0000 C   0  0  0  0  0  0  0  0  0  0  0  0
  -33.4922  -12.9572    0.0000 O   0  0  0  0  0  0  0  0  0  0  0  0
  -31.0157  -13.3110    0.0000 O   0  0  0  0  0  0  0  0  0  0  0  0
  -31.6079   -8.8607    0.0000 C   0  0  0  0  0  0  0  0  0  0  0  0
  -32.3206   -7.5408    0.0000 O   0  0  0  0  0  0  0  0  0  0  0  0
  -32.3945  -10.1378    0.0000 N   0  0  0  0  0  0  0  0  0  0  0  0
  -33.8939  -10.0951    0.0000 C   0  0  0  0  0  0  0  0  0  0  0  0
  -35.2883   -9.5422    0.0000 C   0  0  0  0  0  0  0  0  0  0  0  0
  -35.5066   -8.0582    0.0000 C   0  0  0  0  0  0  0  0  0  0  0  0
  -36.9010   -7.5052    0.0000 C   0  0  0  0  0  0  0  0  0  0  0  0
  -37.1193   -6.0212    0.0000 N   0  0  0  0  0  0  0  0  0  0  0  0
  -38.5137   -5.4682    0.0000 C   0  0  0  0  0  0  0  0  0  0  0  0
  -38.7320   -3.9842    0.0000 N   0  0  0  0  0  0  0  0  0  0  0  0
  -39.6897   -6.3993    0.0000 N   0  0  0  0  0  0  0  0  0  0  0  0
  -34.6806  -11.3723    0.0000 C   0  0  0  0  0  0  0  0  0  0  0  0
  -36.1740  -11.5127    0.0000 O   0  0  0  0  0  0  0  0  0  0  0  0
  -34.1341  -12.7692    0.0000 O   0  0  0  0  0  0  0  0  0  0  0  0
   31.6708   -5.3925    0.0000 H   0  0  0  0  0  0  0  0  0  0  0  0
   31.1668   -9.8567    0.0000 H   0  0  0  0  0  0  0  0  0  0  0  0
   33.5057  -11.7354    0.0000 H   0  0  0  0  0  0  0  0  0  0  0  0
   34.0554   -5.7943    0.0000 H   0  0  0  0  0  0  0  0  0  0  0  0
   41.1888   -5.1398    0.0000 H   0  0  0  0  0  0  0  0  0  0  0  0
   41.4812  -10.3277    0.0000 H   0  0  0  0  0  0  0  0  0  0  0  0
   38.4860  -10.4965    0.0000 H   0  0  0  0  0  0  0  0  0  0  0  0
   43.6546   -8.9041    0.0000 H   0  0  0  0  0  0  0  0  0  0  0  0
   33.8469   -8.1558    0.0000 H   0  0  0  0  0  0  0  0  0  0  0  0
   32.2040   -5.4631    0.0000 H   0  0  0  0  0  0  0  0  0  0  0  0
   36.5497   -2.7991    0.0000 H   0  0  0  0  0  0  0  0  0  0  0  0
   34.2302   -1.6287    0.0000 H   0  0  0  0  0  0  0  0  0  0  0  0
   29.2856   -5.0130    0.0000 H   0  0  0  0  0  0  0  0  0  0  0  0
   28.4362   -8.3212    0.0000 H   0  0  0  0  0  0  0  0  0  0  0  0
   26.8031   -8.2707    0.0000 H   0  0  0  0  0  0  0  0  0  0  0  0
   27.4884   -4.9805    0.0000 H   0  0  0  0  0  0  0  0  0  0  0  0
   25.8736   -4.7313    0.0000 H   0  0  0  0  0  0  0  0  0  0  0  0
   24.1502   -4.2204    0.0000 H   0  0  0  0  0  0  0  0  0  0  0  0
   22.4127   -4.7500    0.0000 H   0  0  0  0  0  0  0  0  0  0  0  0
   23.4113   -9.0246    0.0000 H   0  0  0  0  0  0  0  0  0  0  0  0
   22.0755   -8.3939    0.0000 H   0  0  0  0  0  0  0  0  0  0  0  0
   24.8732   -5.9983    0.0000 H   0  0  0  0  0  0  0  0  0  0  0  0
   27.0410   -9.1110    0.0000 H   0  0  0  0  0  0  0  0  0  0  0  0
   25.8701  -10.2505    0.0000 H   0  0  0  0  0  0  0  0  0  0  0  0
   24.2565   -9.4887    0.0000 H   0  0  0  0  0  0  0  0  0  0  0  0
   27.3681   -7.8928    0.0000 H   0  0  0  0  0  0  0  0  0  0  0  0
   27.4390   -6.1098    0.0000 H   0  0  0  0  0  0  0  0  0  0  0  0
   25.2705   -5.7751    0.0000 H   0  0  0  0  0  0  0  0  0  0  0  0
   20.9680   -3.6806    0.0000 H   0  0  0  0  0  0  0  0  0  0  0  0
   18.9751   -3.5450    0.0000 H   0  0  0  0  0  0  0  0  0  0  0  0
   18.6305   -7.9422    0.0000 H   0  0  0  0  0  0  0  0  0  0  0  0
   17.5386   -6.5308    0.0000 H   0  0  0  0  0  0  0  0  0  0  0  0
   21.0392   -5.5985    0.0000 H   0  0  0  0  0  0  0  0  0  0  0  0
   22.0117   -9.2648    0.0000 H   0  0  0  0  0  0  0  0  0  0  0  0
   20.5217   -9.9352    0.0000 H   0  0  0  0  0  0  0  0  0  0  0  0
   19.2659   -8.6674    0.0000 H   0  0  0  0  0  0  0  0  0  0  0  0
   22.7357   -8.2321    0.0000 H   0  0  0  0  0  0  0  0  0  0  0  0
   23.4462   -6.7608    0.0000 H   0  0  0  0  0  0  0  0  0  0  0  0
   21.4889   -5.5247    0.0000 H   0  0  0  0  0  0  0  0  0  0  0  0
   18.1622   -2.0848    0.0000 H   0  0  0  0  0  0  0  0  0  0  0  0
   16.4908   -1.3736    0.0000 H   0  0  0  0  0  0  0  0  0  0  0  0
   13.8902   -3.9483    0.0000 H   0  0  0  0  0  0  0  0  0  0  0  0
   16.5081   -6.5117    0.0000 H   0  0  0  0  0  0  0  0  0  0  0  0
   17.9747   -5.4952    0.0000 H   0  0  0  0  0  0  0  0  0  0  0  0
   17.6023   -3.9453    0.0000 H   0  0  0  0  0  0  0  0  0  0  0  0
   13.5348   -6.3764    0.0000 H   0  0  0  0  0  0  0  0  0  0  0  0
   13.3878   -4.5980    0.0000 H   0  0  0  0  0  0  0  0  0  0  0  0
   14.7186   -7.9853    0.0000 H   0  0  0  0  0  0  0  0  0  0  0  0
   16.6101   -7.6099    0.0000 H   0  0  0  0  0  0  0  0  0  0  0  0
   16.8482   -6.1521    0.0000 H   0  0  0  0  0  0  0  0  0  0  0  0
   16.0715    0.3743    0.0000 H   0  0  0  0  0  0  0  0  0  0  0  0
   14.6320    1.7591    0.0000 H   0  0  0  0  0  0  0  0  0  0  0  0
   11.5415   -1.3879    0.0000 H   0  0  0  0  0  0  0  0  0  0  0  0
   11.6123    0.3952    0.0000 H   0  0  0  0  0  0  0  0  0  0  0  0
   14.8932   -1.1407    0.0000 H   0  0  0  0  0  0  0  0  0  0  0  0
   13.1035   -4.6179    0.0000 H   0  0  0  0  0  0  0  0  0  0  0  0
   11.7092   -4.1302    0.0000 H   0  0  0  0  0  0  0  0  0  0  0  0
   11.5621   -2.3519    0.0000 H   0  0  0  0  0  0  0  0  0  0  0  0
   14.5000   -4.2487    0.0000 H   0  0  0  0  0  0  0  0  0  0  0  0
   15.9900   -3.5783    0.0000 H   0  0  0  0  0  0  0  0  0  0  0  0
   15.2852   -1.3733    0.0000 H   0  0  0  0  0  0  0  0  0  0  0  0
   14.9406    3.2171    0.0000 H   0  0  0  0  0  0  0  0  0  0  0  0
   13.1894    2.7994    0.0000 H   0  0  0  0  0  0  0  0  0  0  0  0
   12.0062    1.9258    0.0000 H   0  0  0  0  0  0  0  0  0  0  0  0
   11.4980    1.2493    0.0000 H   0  0  0  0  0  0  0  0  0  0  0  0
   10.7483    0.9869    0.0000 H   0  0  0  0  0  0  0  0  0  0  0  0
   10.1809    0.7665    0.0000 H   0  0  0  0  0  0  0  0  0  0  0  0
    8.7289    0.5325    0.0000 H   0  0  0  0  0  0  0  0  0  0  0  0
    7.6334    0.3380    0.0000 H   0  0  0  0  0  0  0  0  0  0  0  0
   15.2005    3.7519    0.0000 H   0  0  0  0  0  0  0  0  0  0  0  0
   15.4968    5.5116    0.0000 H   0  0  0  0  0  0  0  0  0  0  0  0
   14.0827    6.3300    0.0000 H   0  0  0  0  0  0  0  0  0  0  0  0
   14.6071    7.8009    0.0000 H   0  0  0  0  0  0  0  0  0  0  0  0
   14.1393    8.6458    0.0000 H   0  0  0  0  0  0  0  0  0  0  0  0
   13.7751   11.7638    0.0000 H   0  0  0  0  0  0  0  0  0  0  0  0
   12.2536   11.1685    0.0000 H   0  0  0  0  0  0  0  0  0  0  0  0
   16.3665    9.6990    0.0000 H   0  0  0  0  0  0  0  0  0  0  0  0
   14.8510    8.7568    0.0000 H   0  0  0  0  0  0  0  0  0  0  0  0
   18.0448   12.7635    0.0000 H   0  0  0  0  0  0  0  0  0  0  0  0
   17.9709   10.1665    0.0000 H   0  0  0  0  0  0  0  0  0  0  0  0
   11.4306   12.4955    0.0000 H   0  0  0  0  0  0  0  0  0  0  0  0
   10.3592   12.7957    0.0000 H   0  0  0  0  0  0  0  0  0  0  0  0
    9.7418   14.3091    0.0000 H   0  0  0  0  0  0  0  0  0  0  0  0
    7.8135   14.3159    0.0000 H   0  0  0  0  0  0  0  0  0  0  0  0
    7.3302   12.7552    0.0000 H   0  0  0  0  0  0  0  0  0  0  0  0
    5.7796   12.9391    0.0000 H   0  0  0  0  0  0  0  0  0  0  0  0
    5.0600   12.2950    0.0000 H   0  0  0  0  0  0  0  0  0  0  0  0
    2.1084   11.4292    0.0000 H   0  0  0  0  0  0  0  0  0  0  0  0
    2.8558    9.9763    0.0000 H   0  0  0  0  0  0  0  0  0  0  0  0
    1.8886   13.2323    0.0000 H   0  0  0  0  0  0  0  0  0  0  0  0
    3.7150   14.2154    0.0000 H   0  0  0  0  0  0  0  0  0  0  0  0
    4.8085   12.7816    0.0000 H   0  0  0  0  0  0  0  0  0  0  0  0
    1.9095    8.7976    0.0000 H   0  0  0  0  0  0  0  0  0  0  0  0
    2.5094    4.1288    0.0000 H   0  0  0  0  0  0  0  0  0  0  0  0
    1.8883    5.7953    0.0000 H   0  0  0  0  0  0  0  0  0  0  0  0
    3.5619    2.5887    0.0000 H   0  0  0  0  0  0  0  0  0  0  0  0
    2.5883    3.4627    0.0000 H   0  0  0  0  0  0  0  0  0  0  0  0
    4.8385    1.4350    0.0000 H   0  0  0  0  0  0  0  0  0  0  0  0
    3.7263    2.1239    0.0000 H   0  0  0  0  0  0  0  0  0  0  0  0
    5.7366    0.7780    0.0000 H   0  0  0  0  0  0  0  0  0  0  0  0
    4.3290    5.7866    0.0000 H   0  0  0  0  0  0  0  0  0  0  0  0
    3.6961    4.1246    0.0000 H   0  0  0  0  0  0  0  0  0  0  0  0
    3.6125    3.4590    0.0000 H   0  0  0  0  0  0  0  0  0  0  0  0
    2.6328    2.5920    0.0000 H   0  0  0  0  0  0  0  0  0  0  0  0
    2.4651    2.1283    0.0000 H   0  0  0  0  0  0  0  0  0  0  0  0
    1.3480    1.4473    0.0000 H   0  0  0  0  0  0  0  0  0  0  0  0
    0.4453    0.7967    0.0000 H   0  0  0  0  0  0  0  0  0  0  0  0
    2.9502   11.0312    0.0000 H   0  0  0  0  0  0  0  0  0  0  0  0
    2.5871   11.4516    0.0000 H   0  0  0  0  0  0  0  0  0  0  0  0
    1.0214   13.7558    0.0000 H   0  0  0  0  0  0  0  0  0  0  0  0
   -0.0912   12.5593    0.0000 H   0  0  0  0  0  0  0  0  0  0  0  0
    2.7466   14.4243    0.0000 H   0  0  0  0  0  0  0  0  0  0  0  0
    4.2470   13.2129    0.0000 H   0  0  0  0  0  0  0  0  0  0  0  0
    2.9203   11.4153    0.0000 H   0  0  0  0  0  0  0  0  0  0  0  0
   -1.4085   13.3978    0.0000 H   0  0  0  0  0  0  0  0  0  0  0  0
   -2.3363   13.1297    0.0000 H   0  0  0  0  0  0  0  0  0  0  0  0
   -5.2154   11.8527    0.0000 H   0  0  0  0  0  0  0  0  0  0  0  0
   -4.6426   15.4936    0.0000 H   0  0  0  0  0  0  0  0  0  0  0  0
   -2.8675   15.5354    0.0000 H   0  0  0  0  0  0  0  0  0  0  0  0
   -2.2862   13.8483    0.0000 H   0  0  0  0  0  0  0  0  0  0  0  0
   -6.9526   13.5859    0.0000 H   0  0  0  0  0  0  0  0  0  0  0  0
   -6.0067   12.0728    0.0000 H   0  0  0  0  0  0  0  0  0  0  0  0
   -6.9663   15.5834    0.0000 H   0  0  0  0  0  0  0  0  0  0  0  0
   -5.2260   16.4139    0.0000 H   0  0  0  0  0  0  0  0  0  0  0  0
   -4.1219   15.2096    0.0000 H   0  0  0  0  0  0  0  0  0  0  0  0
   -6.6923   11.3456    0.0000 H   0  0  0  0  0  0  0  0  0  0  0  0
   -7.0612   10.4530    0.0000 H   0  0  0  0  0  0  0  0  0  0  0  0
   -9.1791    8.0663    0.0000 H   0  0  0  0  0  0  0  0  0  0  0  0
   -7.8578    7.4058    0.0000 H   0  0  0  0  0  0  0  0  0  0  0  0
   -7.5918   10.9403    0.0000 H   0  0  0  0  0  0  0  0  0  0  0  0
  -11.3661   11.0016    0.0000 H   0  0  0  0  0  0  0  0  0  0  0  0
  -11.6624    9.2419    0.0000 H   0  0  0  0  0  0  0  0  0  0  0  0
  -10.0663    8.4440    0.0000 H   0  0  0  0  0  0  0  0  0  0  0  0
  -10.6822   12.0522    0.0000 H   0  0  0  0  0  0  0  0  0  0  0  0
   -9.1932   13.0355    0.0000 H   0  0  0  0  0  0  0  0  0  0  0  0
   -7.7842   11.7189    0.0000 H   0  0  0  0  0  0  0  0  0  0  0  0
   -8.3822    5.9350    0.0000 H   0  0  0  0  0  0  0  0  0  0  0  0
   -5.9958    2.0238    0.0000 H   0  0  0  0  0  0  0  0  0  0  0  0
   -6.9930    2.8708    0.0000 H   0  0  0  0  0  0  0  0  0  0  0  0
   -4.5648    1.0410    0.0000 H   0  0  0  0  0  0  0  0  0  0  0  0
   -5.5841    1.5537    0.0000 H   0  0  0  0  0  0  0  0  0  0  0  0
   -2.5487    0.5724    0.0000 H   0  0  0  0  0  0  0  0  0  0  0  0
   -3.9990    0.8166    0.0000 H   0  0  0  0  0  0  0  0  0  0  0  0
   -1.4545    0.3702    0.0000 H   0  0  0  0  0  0  0  0  0  0  0  0
   -9.1203    3.9733    0.0000 H   0  0  0  0  0  0  0  0  0  0  0  0
   -9.1873    5.7565    0.0000 H   0  0  0  0  0  0  0  0  0  0  0  0
   -7.8614    6.4076    0.0000 H   0  0  0  0  0  0  0  0  0  0  0  0
   -9.6155    4.7071    0.0000 H   0  0  0  0  0  0  0  0  0  0  0  0
   -8.1395    1.6539    0.0000 H   0  0  0  0  0  0  0  0  0  0  0  0
   -9.4387   -0.7087    0.0000 H   0  0  0  0  0  0  0  0  0  0  0  0
   -8.3369    0.6949    0.0000 H   0  0  0  0  0  0  0  0  0  0  0  0
  -12.1495    1.4726    0.0000 H   0  0  0  0  0  0  0  0  0  0  0  0
  -12.8292   -2.0074    0.0000 H   0  0  0  0  0  0  0  0  0  0  0  0
  -11.3440   -2.6883    0.0000 H   0  0  0  0  0  0  0  0  0  0  0  0
  -10.0793   -1.4294    0.0000 H   0  0  0  0  0  0  0  0  0  0  0  0
  -13.7702    1.4158    0.0000 H   0  0  0  0  0  0  0  0  0  0  0  0
  -13.9188   -0.6440    0.0000 H   0  0  0  0  0  0  0  0  0  0  0  0
  -12.7235   -1.1920    0.0000 H   0  0  0  0  0  0  0  0  0  0  0  0
  -11.4478   -0.4808    0.0000 H   0  0  0  0  0  0  0  0  0  0  0  0
  -12.8401    2.4364    0.0000 H   0  0  0  0  0  0  0  0  0  0  0  0
  -16.1967    1.7931    0.0000 H   0  0  0  0  0  0  0  0  0  0  0  0
  -15.5226    0.3048    0.0000 H   0  0  0  0  0  0  0  0  0  0  0  0
  -14.6296    4.5212    0.0000 H   0  0  0  0  0  0  0  0  0  0  0  0
  -13.4386    3.1924    0.0000 H   0  0  0  0  0  0  0  0  0  0  0  0
  -16.4737    1.0037    0.0000 H   0  0  0  0  0  0  0  0  0  0  0  0
  -14.9977   -2.0495    0.0000 H   0  0  0  0  0  0  0  0  0  0  0  0
  -16.4762   -4.4498    0.0000 H   0  0  0  0  0  0  0  0  0  0  0  0
  -15.1951   -3.0085    0.0000 H   0  0  0  0  0  0  0  0  0  0  0  0
  -19.6175   -3.3958    0.0000 H   0  0  0  0  0  0  0  0  0  0  0  0
  -19.0077   -2.2308    0.0000 H   0  0  0  0  0  0  0  0  0  0  0  0
  -20.1465   -6.8496    0.0000 H   0  0  0  0  0  0  0  0  0  0  0  0
  -21.2121   -4.7063    0.0000 H   0  0  0  0  0  0  0  0  0  0  0  0
  -18.3060   -4.1842    0.0000 H   0  0  0  0  0  0  0  0  0  0  0  0
  -19.6983   -1.2670    0.0000 H   0  0  0  0  0  0  0  0  0  0  0  0
  -23.0549   -1.9103    0.0000 H   0  0  0  0  0  0  0  0  0  0  0  0
  -22.2208   -3.4878    0.0000 H   0  0  0  0  0  0  0  0  0  0  0  0
  -21.4878    0.8178    0.0000 H   0  0  0  0  0  0  0  0  0  0  0  0
  -20.2968   -0.5110    0.0000 H   0  0  0  0  0  0  0  0  0  0  0  0
  -24.7973    1.9385    0.0000 H   0  0  0  0  0  0  0  0  0  0  0  0
  -22.2268    2.3167    0.0000 H   0  0  0  0  0  0  0  0  0  0  0  0
  -23.3319   -2.6997    0.0000 H   0  0  0  0  0  0  0  0  0  0  0  0
  -21.8559   -5.7529    0.0000 H   0  0  0  0  0  0  0  0  0  0  0  0
  -23.3344   -8.1532    0.0000 H   0  0  0  0  0  0  0  0  0  0  0  0
  -22.0533   -6.7119    0.0000 H   0  0  0  0  0  0  0  0  0  0  0  0
  -25.2787   -8.6111    0.0000 H   0  0  0  0  0  0  0  0  0  0  0  0
  -26.4757   -7.0992    0.0000 H   0  0  0  0  0  0  0  0  0  0  0  0
  -25.8659   -5.9341    0.0000 H   0  0  0  0  0  0  0  0  0  0  0  0
  -24.9898   -7.8313    0.0000 H   0  0  0  0  0  0  0  0  0  0  0  0
  -26.5565   -4.9704    0.0000 H   0  0  0  0  0  0  0  0  0  0  0  0
  -29.9295   -5.7961    0.0000 H   0  0  0  0  0  0  0  0  0  0  0  0
  -29.0790   -7.1912    0.0000 H   0  0  0  0  0  0  0  0  0  0  0  0
  -28.3460   -2.8856    0.0000 H   0  0  0  0  0  0  0  0  0  0  0  0
  -27.1550   -4.2144    0.0000 H   0  0  0  0  0  0  0  0  0  0  0  0
  -31.5422   -3.7591    0.0000 H   0  0  0  0  0  0  0  0  0  0  0  0
  -30.5220   -5.2232    0.0000 H   0  0  0  0  0  0  0  0  0  0  0  0
  -29.0850   -1.3867    0.0000 H   0  0  0  0  0  0  0  0  0  0  0  0
  -33.2681    0.2721    0.0000 H   0  0  0  0  0  0  0  0  0  0  0  0
  -30.6977    0.6503    0.0000 H   0  0  0  0  0  0  0  0  0  0  0  0
  -34.2259   -2.1430    0.0000 H   0  0  0  0  0  0  0  0  0  0  0  0
  -32.6132   -4.1800    0.0000 H   0  0  0  0  0  0  0  0  0  0  0  0
  -30.1901   -6.4031    0.0000 H   0  0  0  0  0  0  0  0  0  0  0  0
  -28.7141   -9.4563    0.0000 H   0  0  0  0  0  0  0  0  0  0  0  0
  -30.1926  -11.8566    0.0000 H   0  0  0  0  0  0  0  0  0  0  0  0
  -28.9115  -10.4153    0.0000 H   0  0  0  0  0  0  0  0  0  0  0  0
  -33.3339  -10.8026    0.0000 H   0  0  0  0  0  0  0  0  0  0  0  0
  -32.7241   -9.6375    0.0000 H   0  0  0  0  0  0  0  0  0  0  0  0
  -32.0224  -11.5909    0.0000 H   0  0  0  0  0  0  0  0  0  0  0  0
  -33.4147   -8.6738    0.0000 H   0  0  0  0  0  0  0  0  0  0  0  0
  -36.7817   -9.6826    0.0000 H   0  0  0  0  0  0  0  0  0  0  0  0
  -35.7675  -10.9636    0.0000 H   0  0  0  0  0  0  0  0  0  0  0  0
  -35.2042   -6.5890    0.0000 H   0  0  0  0  0  0  0  0  0  0  0  0
  -34.0132   -7.9178    0.0000 H   0  0  0  0  0  0  0  0  0  0  0  0
  -38.4004   -7.4625    0.0000 H   0  0  0  0  0  0  0  0  0  0  0  0
  -37.3802   -8.9266    0.0000 H   0  0  0  0  0  0  0  0  0  0  0  0
  -35.9432   -5.0901    0.0000 H   0  0  0  0  0  0  0  0  0  0  0  0
  -40.1263   -3.4313    0.0000 H   0  0  0  0  0  0  0  0  0  0  0  0
  -37.5559   -3.0531    0.0000 H   0  0  0  0  0  0  0  0  0  0  0  0
  -41.0841   -5.8464    0.0000 H   0  0  0  0  0  0  0  0  0  0  0  0
  -39.4714   -7.8833    0.0000 H   0  0  0  0  0  0  0  0  0  0  0  0
  1  2  1  0
  2  3  1  0
  3  4  2  0
  4  5  1  0
  5  6  2  0
  6  7  1  0
  7  8  2  0
  7  9  1  0
  9 10  1  0
 10 11  1  0
 11 12  2  0
  9 13  1  0
 13 14  1  0
 14 15  2  0
 15 16  1  0
 16 17  2  0
 17 18  1  0
 16 19  1  0
 14 20  1  0
 20 21  1  0
 21 22  2  0
 22 23  1  0
 23 24  2  0
 24 25  1  0
 25 26  2  0
 25 27  1  0
  1 28  2  0
  1 29  1  0
 29 30  1  0
 30 31  1  0
 31 32  1  0
 32 33  2  0
 32 34  1  0
 34 35  1  0
 35 36  1  0
 36 37  1  0
 37 38  1  0
 37 39  1  0
 35 40  1  0
 40 41  2  0
 40 42  1  0
 42 43  1  0
 43 44  1  0
 44 45  1  0
 45 46  1  0
 45 47  1  0
 43 48  1  0
 48 49  2  0
 48 50  1  0
 50 51  1  0
 51 52  1  0
 52 53  1  0
 52 54  1  0
 54 55  1  0
 51 56  1  0
 56 57  2  0
 56 58  1  0
 58 59  1  0
 59 60  1  0
 60 61  1  0
 61 62  1  0
 61 63  1  0
 59 64  1  0
 64 65  2  0
 64 66  1  0
 67 66  1  1
 67 68  1  0
 68 69  1  0
 69 70  1  0
 70 71  1  0
 67 72  1  0
 67 73  1  0
 73 74  2  0
 73 75  1  0
 75 76  1  0
 76 77  1  0
 77 78  1  0
 78 79  1  0
 79 80  1  0
 79 81  2  0
 76 82  1  0
 82 83  2  0
 82 84  1  0
 84 85  1  0
 85 86  1  0
 85 87  1  0
 87 88  2  0
 87 89  1  0
 89 90  1  0
 90 91  1  0
 91 92  1  0
 90 93  1  0
 93 94  2  0
 93 95  1  0
 95 96  1  0
 96 97  1  0
 97 98  1  0
 98 99  1  0
 99100  1  0
 96101  1  0
101102  1  0
102103  1  0
103104  1  0
 96105  1  0
105106  2  0
105107  1  0
107108  1  0
108109  1  0
109110  1  0
108111  1  0
111112  2  0
111113  1  0
113114  1  0
114115  1  0
115116  1  0
115117  1  0
117118  1  0
114119  1  0
119120  2  0
119121  1  0
121122  1  0
122123  1  0
123124  1  0
124125  1  0
124126  1  0
122127  1  0
127128  2  0
127129  1  0
129130  1  0
130131  1  0
131132  1  0
132133  1  0
133134  1  0
130135  1  0
130136  1  6
136137  2  0
136138  1  0
138139  1  0
139140  1  0
140141  1  0
141142  1  0
141143  1  0
139144  1  0
144145  2  0
144146  1  0
146147  1  0
147148  1  0
148149  1  0
149150  1  0
150151  2  0
150152  1  0
147153  1  0
153154  2  0
153155  1  0
155156  1  0
156157  1  0
157158  1  0
158159  1  0
159160  1  0
159161  2  0
156162  1  0
162163  2  0
162164  1  0
164165  1  0
165166  1  0
166167  1  0
167168  1  0
168169  1  0
168170  2  0
165171  1  0
171172  2  0
171173  1  0
173174  1  0
174175  1  0
175176  1  0
174177  1  0
177178  2  0
177179  1  0
179180  1  0
180181  1  0
181182  1  0
182183  1  0
183184  1  0
184185  1  0
185186  2  3
185187  1  0
180188  1  0
188189  2  0
188190  1  0
190191  1  0
191192  1  0
192193  1  0
193194  1  0
194195  2  0
194196  1  0
191197  1  0
197198  2  0
197199  1  0
199200  1  0
200201  1  0
201202  1  0
202203  1  0
203204  1  0
204205  1  0
205206  2  3
205207  1  0
200208  1  0
208209  2  0
208210  1  0
  8  3  1  0
 11  6  1  0
 18 13  2  0
 71100  2  0
 22  9  1  0
104134  2  0
 26 21  1  0
  2211  1  0
  4212  1  0
  5213  1  0
  8214  1  0
 15215  1  0
 17216  1  0
 18217  1  0
 19218  1  0
 23219  1  0
 24220  1  0
 26221  1  0
 27222  1  0
 29223  1  0
 30224  1  0
 30225  1  0
 31226  1  0
 31227  1  0
 34228  1  0
 35229  1  1
 36230  1  0
 36231  1  0
 37232  1  0
 38233  1  0
 38234  1  0
 38235  1  0
 39236  1  0
 39237  1  0
 39238  1  0
 42239  1  0
 43240  1  1
 44241  1  0
 44242  1  0
 45243  1  0
 46244  1  0
 46245  1  0
 46246  1  0
 47247  1  0
 47248  1  0
 47249  1  0
 50250  1  0
 51251  1  1
 52252  1  6
 53253  1  0
 53254  1  0
 53255  1  0
 54256  1  0
 54257  1  0
 55258  1  0
 55259  1  0
 55260  1  0
 58261  1  0
 59262  1  1
 60263  1  0
 60264  1  0
 61265  1  0
 62266  1  0
 62267  1  0
 62268  1  0
 63269  1  0
 63270  1  0
 63271  1  0
 66272  1  0
 68273  1  0
 68274  1  0
 69275  1  0
 69276  1  0
 70277  1  0
 70278  1  0
 71279  1  0
 72280  1  0
 72281  1  0
 72282  1  0
 75283  1  0
 76284  1  6
 77285  1  0
 77286  1  0
 78287  1  0
 78288  1  0
 80289  1  0
 80290  1  0
 84291  1  0
 85292  1  6
 86293  1  0
 86294  1  0
 86295  1  0
 89296  1  0
 90297  1  6
 91298  1  0
 91299  1  0
 92300  1  0
 92301  1  0
 92302  1  0
 95303  1  0
 97304  1  0
 97305  1  0
 98306  1  0
 98307  1  0
 99308  1  0
 99309  1  0
100310  1  0
101311  1  0
101312  1  0
102313  1  0
102314  1  0
103315  1  0
103316  1  0
104317  1  0
107318  1  0
108319  1  6
109320  1  0
109321  1  0
110322  1  0
110323  1  0
110324  1  0
113325  1  0
114326  1  6
115327  1  1
116328  1  0
116329  1  0
116330  1  0
117331  1  0
117332  1  0
118333  1  0
118334  1  0
118335  1  0
121336  1  0
122337  1  6
123338  1  0
123339  1  0
124340  1  0
125341  1  0
125342  1  0
125343  1  0
126344  1  0
126345  1  0
126346  1  0
129347  1  0
131348  1  0
131349  1  0
132350  1  0
132351  1  0
133352  1  0
133353  1  0
134354  1  0
135355  1  0
135356  1  0
135357  1  0
138358  1  0
139359  1  1
140360  1  0
140361  1  0
141362  1  0
142363  1  0
142364  1  0
142365  1  0
143366  1  0
143367  1  0
143368  1  0
146369  1  0
147370  1  6
148371  1  0
148372  1  0
149373  1  0
149374  1  0
155375  1  0
156376  1  1
157377  1  0
157378  1  0
158379  1  0
158380  1  0
160381  1  0
160382  1  0
164383  1  0
165384  1  6
166385  1  0
166386  1  0
167387  1  0
167388  1  0
169389  1  0
169390  1  0
173391  1  0
174392  1  1
175393  1  0
175394  1  0
176395  1  0
176396  1  0
176397  1  0
179398  1  0
180399  1  6
181400  1  0
181401  1  0
182402  1  0
182403  1  0
183404  1  0
183405  1  0
184406  1  0
186407  1  0
186408  1  0
187409  1  0
187410  1  0
190411  1  0
191412  1  1
192413  1  0
192414  1  0
193415  1  0
193416  1  0
199417  1  0
200418  1  6
201419  1  0
201420  1  0
202421  1  0
202422  1  0
203423  1  0
203424  1  0
204425  1  0
206426  1  0
206427  1  0
207428  1  0
207429  1  0
M  CHG  5 152  -1 186   1 196  -1 206   1 210  -1
M  END
