
     RDKit          2D

421427  0  0  0  0  0  0  0  0999 V2000
   22.7991  -12.1809    0.0000 C   0  0  0  0  0  0  0  0  0  0  0  0
   23.6418  -13.4218    0.0000 N   0  0  0  0  0  0  0  0  0  0  0  0
   22.9884  -14.7721    0.0000 C   0  0  0  0  0  0  0  0  0  0  0  0
   21.4924  -14.8814    0.0000 C   0  0  0  0  0  0  0  0  0  0  0  0
   20.8391  -16.2316    0.0000 C   0  0  0  0  0  0  0  0  0  0  0  0
   21.6818  -17.4726    0.0000 C   0  0  0  0  0  0  0  0  0  0  0  0
   23.1778  -17.3633    0.0000 C   0  0  0  0  0  0  0  0  0  0  0  0
   23.8311  -16.0130    0.0000 C   0  0  0  0  0  0  0  0  0  0  0  0
   23.7440  -18.7523    0.0000 C   0  0  0  0  0  0  0  0  0  0  0  0
   22.5980  -19.7200    0.0000 O   0  0  0  0  0  0  0  0  0  0  0  0
   21.3234  -18.9291    0.0000 C   0  0  0  0  0  0  0  0  0  0  0  0
   19.9344  -19.4954    0.0000 O   0  0  0  0  0  0  0  0  0  0  0  0
   24.1620  -20.1929    0.0000 C   0  0  0  0  0  0  0  0  0  0  0  0
   25.6186  -20.5512    0.0000 C   0  0  0  0  0  0  0  0  0  0  0  0
   26.0365  -21.9918    0.0000 C   0  0  0  0  0  0  0  0  0  0  0  0
   24.9979  -23.0740    0.0000 C   0  0  0  0  0  0  0  0  0  0  0  0
   23.5414  -22.7157    0.0000 C   0  0  0  0  0  0  0  0  0  0  0  0
   23.1234  -21.2751    0.0000 C   0  0  0  0  0  0  0  0  0  0  0  0
   25.4159  -24.5146    0.0000 O   0  0  0  0  0  0  0  0  0  0  0  0
   26.6572  -19.4689    0.0000 O   0  0  0  0  0  0  0  0  0  0  0  0
   26.2392  -18.0283    0.0000 C   0  0  0  0  0  0  0  0  0  0  0  0
   24.7826  -17.6700    0.0000 C   0  0  0  0  0  0  0  0  0  0  0  0
   25.0444  -16.3966    0.0000 C   0  0  0  0  0  0  0  0  0  0  0  0
   25.5983  -15.8194    0.0000 C   0  0  0  0  0  0  0  0  0  0  0  0
   26.3752  -16.0105    0.0000 C   0  0  0  0  0  0  0  0  0  0  0  0
   26.5981  -16.7788    0.0000 C   0  0  0  0  0  0  0  0  0  0  0  0
   27.8984  -14.4232    0.0000 O   0  0  0  0  0  0  0  0  0  0  0  0
   21.3031  -12.2902    0.0000 S   0  0  0  0  0  0  0  0  0  0  0  0
   23.4524  -10.8307    0.0000 N   0  0  0  0  0  0  0  0  0  0  0  0
   22.6097   -9.5898    0.0000 C   0  0  0  0  0  0  0  0  0  0  0  0
   23.2631   -8.2395    0.0000 C   0  0  0  0  0  0  0  0  0  0  0  0
   22.4204   -6.9986    0.0000 C   0  0  0  0  0  0  0  0  0  0  0  0
   21.6630   -7.2473    0.0000 O   0  0  0  0  0  0  0  0  0  0  0  0
   23.0737   -5.6483    0.0000 N   0  0  0  0  0  0  0  0  0  0  0  0
   22.2310   -4.4074    0.0000 C   0  0  0  0  0  0  0  0  0  0  0  0
   21.1553   -5.4528    0.0000 C   0  0  0  0  0  0  0  0  0  0  0  0
   21.5227   -6.9071    0.0000 C   0  0  0  0  0  0  0  0  0  0  0  0
   20.4470   -7.9524    0.0000 C   0  0  0  0  0  0  0  0  0  0  0  0
   22.3654   -8.1480    0.0000 C   0  0  0  0  0  0  0  0  0  0  0  0
   21.8636   -2.9531    0.0000 C   0  0  0  0  0  0  0  0  0  0  0  0
   20.3697   -3.0886    0.0000 O   0  0  0  0  0  0  0  0  0  0  0  0
   22.9394   -1.9078    0.0000 N   0  0  0  0  0  0  0  0  0  0  0  0
   22.5719   -0.4535    0.0000 C   0  0  0  0  0  0  0  0  0  0  0  0
   21.3974   -1.3865    0.0000 C   0  0  0  0  0  0  0  0  0  0  0  0
   20.0001   -1.9319    0.0000 C   0  0  0  0  0  0  0  0  0  0  0  0
   18.5041   -2.0412    0.0000 C   0  0  0  0  0  0  0  0  0  0  0  0
   17.0423   -1.7048    0.0000 C   0  0  0  0  0  0  0  0  0  0  0  0
   24.0486   -0.7167    0.0000 C   0  0  0  0  0  0  0  0  0  0  0  0
   23.4192    0.7843    0.0000 C   0  0  0  0  0  0  0  0  0  0  0  0
   24.7694    0.1310    0.0000 O   0  0  0  0  0  0  0  0  0  0  0  0
   23.8640    2.2169    0.0000 N   0  0  0  0  0  0  0  0  0  0  0  0
   23.8668    3.7169    0.0000 C   0  0  0  0  0  0  0  0  0  0  0  0
   24.9933    4.7073    0.0000 C   0  0  0  0  0  0  0  0  0  0  0  0
   26.3451    4.0573    0.0000 C   0  0  0  0  0  0  0  0  0  0  0  0
   25.7131    6.0233    0.0000 C   0  0  0  0  0  0  0  0  0  0  0  0
   27.2127    6.0579    0.0000 C   0  0  0  0  0  0  0  0  0  0  0  0
   23.4273    5.1510    0.0000 C   0  0  0  0  0  0  0  0  0  0  0  0
   24.6908    5.9594    0.0000 O   0  0  0  0  0  0  0  0  0  0  0  0
   22.5846    6.3920    0.0000 N   0  0  0  0  0  0  0  0  0  0  0  0
   21.4136    7.3294    0.0000 C   0  0  0  0  0  0  0  0  0  0  0  0
   21.3416    8.8276    0.0000 C   0  0  0  0  0  0  0  0  0  0  0  0
   22.6032    9.6391    0.0000 C   0  0  0  0  0  0  0  0  0  0  0  0
   22.5312   11.1374    0.0000 C   0  0  0  0  0  0  0  0  0  0  0  0
   24.0662    9.9702    0.0000 C   0  0  0  0  0  0  0  0  0  0  0  0
   20.0183    7.8800    0.0000 C   0  0  0  0  0  0  0  0  0  0  0  0
   20.3548    9.3417    0.0000 O   0  0  0  0  0  0  0  0  0  0  0  0
   18.5227    7.9949    0.0000 N   0  0  0  0  0  0  0  0  0  0  0  0
   17.0597    7.6638    0.0000 C   0  0  0  0  0  0  0  0  0  0  0  0
   15.8434    8.5417    0.0000 C   0  0  0  0  0  0  0  0  0  0  0  0
   15.9956   10.0339    0.0000 C   0  0  0  0  0  0  0  0  0  0  0  0
   14.7793   10.9118    0.0000 C   0  0  0  0  0  0  0  0  0  0  0  0
   14.9314   12.4041    0.0000 N   0  0  0  0  0  0  0  0  0  0  0  0
   13.2816   10.8287    0.0000 O   0  0  0  0  0  0  0  0  0  0  0  0
   15.7593    6.9162    0.0000 C   0  0  0  0  0  0  0  0  0  0  0  0
   15.1382    8.2816    0.0000 O   0  0  0  0  0  0  0  0  0  0  0  0
   14.7370    5.8185    0.0000 N   0  0  0  0  0  0  0  0  0  0  0  0
   14.0837    4.4683    0.0000 C   0  0  0  0  0  0  0  0  0  0  0  0
   13.8573    2.9854    0.0000 C   0  0  0  0  0  0  0  0  0  0  0  0
   14.0782    1.5018    0.0000 C   0  0  0  0  0  0  0  0  0  0  0  0
   14.7265    0.1491    0.0000 C   0  0  0  0  0  0  0  0  0  0  0  0
   15.7447   -0.9523    0.0000 C   0  0  0  0  0  0  0  0  0  0  0  0
   13.4303    3.1180    0.0000 C   0  0  0  0  0  0  0  0  0  0  0  0
   12.4080    2.0203    0.0000 C   0  0  0  0  0  0  0  0  0  0  0  0
   11.1076    1.2728    0.0000 C   0  0  0  0  0  0  0  0  0  0  0  0
    9.6446    0.9417    0.0000 C   0  0  0  0  0  0  0  0  0  0  0  0
   14.3100    5.9511    0.0000 C   0  0  0  0  0  0  0  0  0  0  0  0
   15.8100    5.9483    0.0000 O   0  0  0  0  0  0  0  0  0  0  0  0
   14.0892    7.4348    0.0000 N   0  0  0  0  0  0  0  0  0  0  0  0
   13.4409    8.7874    0.0000 C   0  0  0  0  0  0  0  0  0  0  0  0
   13.8534   10.2296    0.0000 C   0  0  0  0  0  0  0  0  0  0  0  0
   12.4226    9.8889    0.0000 C   0  0  0  0  0  0  0  0  0  0  0  0
   13.2103   11.1654    0.0000 O   0  0  0  0  0  0  0  0  0  0  0  0
   11.1250   10.6413    0.0000 N   0  0  0  0  0  0  0  0  0  0  0  0
    9.6632   10.9778    0.0000 C   0  0  0  0  0  0  0  0  0  0  0  0
    8.9483   12.2965    0.0000 C   0  0  0  0  0  0  0  0  0  0  0  0
    9.7328   13.5749    0.0000 C   0  0  0  0  0  0  0  0  0  0  0  0
    8.1672   10.8685    0.0000 C   0  0  0  0  0  0  0  0  0  0  0  0
    7.8361   12.3315    0.0000 O   0  0  0  0  0  0  0  0  0  0  0  0
    6.7699   10.3231    0.0000 N   0  0  0  0  0  0  0  0  0  0  0  0
    5.5954    9.3900    0.0000 C   0  0  0  0  0  0  0  0  0  0  0  0
    4.1187    9.6532    0.0000 C   0  0  0  0  0  0  0  0  0  0  0  0
    3.6083   11.0637    0.0000 C   0  0  0  0  0  0  0  0  0  0  0  0
    2.1315   11.3269    0.0000 C   0  0  0  0  0  0  0  0  0  0  0  0
    1.6211   12.7374    0.0000 N   0  0  0  0  0  0  0  0  0  0  0  0
    1.1652   10.1796    0.0000 O   0  0  0  0  0  0  0  0  0  0  0  0
    4.7481    8.1522    0.0000 C   0  0  0  0  0  0  0  0  0  0  0  0
    3.3979    8.8056    0.0000 O   0  0  0  0  0  0  0  0  0  0  0  0
    4.3033    6.7197    0.0000 N   0  0  0  0  0  0  0  0  0  0  0  0
    4.3005    5.2197    0.0000 C   0  0  0  0  0  0  0  0  0  0  0  0
    4.7400    3.7855    0.0000 C   0  0  0  0  0  0  0  0  0  0  0  0
    5.5827    2.5446    0.0000 C   0  0  0  0  0  0  0  0  0  0  0  0
    6.7537    1.6072    0.0000 C   0  0  0  0  0  0  0  0  0  0  0  0
    8.1490    1.0566    0.0000 C   0  0  0  0  0  0  0  0  0  0  0  0
    2.9344    5.8392    0.0000 C   0  0  0  0  0  0  0  0  0  0  0  0
    3.1740    4.2292    0.0000 C   0  0  0  0  0  0  0  0  0  0  0  0
    3.1039    2.7309    0.0000 O   0  0  0  0  0  0  0  0  0  0  0  0
    1.7530    4.7096    0.0000 N   0  0  0  0  0  0  0  0  0  0  0  0
    0.6265    3.7192    0.0000 C   0  0  0  0  0  0  0  0  0  0  0  0
   -0.0933    2.4032    0.0000 C   0  0  0  0  0  0  0  0  0  0  0  0
   -1.5775    2.1860    0.0000 C   0  0  0  0  0  0  0  0  0  0  0  0
   -0.3196    0.9203    0.0000 C   0  0  0  0  0  0  0  0  0  0  0  0
    0.8514   -0.0171    0.0000 C   0  0  0  0  0  0  0  0  0  0  0  0
   -0.7945    4.1995    0.0000 C   0  0  0  0  0  0  0  0  0  0  0  0
   -1.0890    5.6704    0.0000 O   0  0  0  0  0  0  0  0  0  0  0  0
   -1.9210    3.2091    0.0000 N   0  0  0  0  0  0  0  0  0  0  0  0
   -3.3420    3.6895    0.0000 C   0  0  0  0  0  0  0  0  0  0  0  0
   -4.5130    4.6269    0.0000 C   0  0  0  0  0  0  0  0  0  0  0  0
   -4.2867    6.1097    0.0000 C   0  0  0  0  0  0  0  0  0  0  0  0
   -5.4577    7.0471    0.0000 C   0  0  0  0  0  0  0  0  0  0  0  0
   -3.5669    7.4257    0.0000 C   0  0  0  0  0  0  0  0  0  0  0  0
   -4.4685    2.6990    0.0000 C   0  0  0  0  0  0  0  0  0  0  0  0
   -4.1740    1.2282    0.0000 O   0  0  0  0  0  0  0  0  0  0  0  0
   -5.8895    3.1794    0.0000 N   0  0  0  0  0  0  0  0  0  0  0  0
   -7.0160    2.1890    0.0000 C   0  0  0  0  0  0  0  0  0  0  0  0
   -8.4370    2.6693    0.0000 C   0  0  0  0  0  0  0  0  0  0  0  0
   -8.7315    4.1401    0.0000 O   0  0  0  0  0  0  0  0  0  0  0  0
   -9.5635    1.6789    0.0000 N   0  0  0  0  0  0  0  0  0  0  0  0
  -10.9845    2.1593    0.0000 C   0  0  0  0  0  0  0  0  0  0  0  0
  -12.1555    3.0967    0.0000 C   0  0  0  0  0  0  0  0  0  0  0  0
  -11.9292    4.5795    0.0000 C   0  0  0  0  0  0  0  0  0  0  0  0
  -13.1002    5.5169    0.0000 C   0  0  0  0  0  0  0  0  0  0  0  0
  -11.2094    5.8955    0.0000 C   0  0  0  0  0  0  0  0  0  0  0  0
  -12.1110    1.1688    0.0000 C   0  0  0  0  0  0  0  0  0  0  0  0
  -11.8166   -0.3020    0.0000 O   0  0  0  0  0  0  0  0  0  0  0  0
  -13.5321    1.6492    0.0000 N   0  0  0  0  0  0  0  0  0  0  0  0
  -14.6586    0.6588    0.0000 C   0  0  0  0  0  0  0  0  0  0  0  0
  -15.3784   -0.6572    0.0000 C   0  0  0  0  0  0  0  0  0  0  0  0
  -16.8780   -0.6919    0.0000 C   0  0  0  0  0  0  0  0  0  0  0  0
  -17.5978   -2.0079    0.0000 C   0  0  0  0  0  0  0  0  0  0  0  0
  -19.0820   -2.2250    0.0000 O   0  0  0  0  0  0  0  0  0  0  0  0
  -16.8180   -3.2892    0.0000 O   0  0  0  0  0  0  0  0  0  0  0  0
  -16.0796    1.1391    0.0000 C   0  0  0  0  0  0  0  0  0  0  0  0
  -16.3741    2.6099    0.0000 O   0  0  0  0  0  0  0  0  0  0  0  0
  -17.2061    0.1487    0.0000 N   0  0  0  0  0  0  0  0  0  0  0  0
  -18.6271    0.6291    0.0000 C   0  0  0  0  0  0  0  0  0  0  0  0
  -19.7981    1.5665    0.0000 C   0  0  0  0  0  0  0  0  0  0  0  0
  -19.5718    3.0493    0.0000 C   0  0  0  0  0  0  0  0  0  0  0  0
  -20.7428    3.9867    0.0000 C   0  0  0  0  0  0  0  0  0  0  0  0
  -20.5165    5.4695    0.0000 N   0  0  0  0  0  0  0  0  0  0  0  0
  -22.1401    3.4413    0.0000 O   0  0  0  0  0  0  0  0  0  0  0  0
  -19.7536   -0.3614    0.0000 C   0  0  0  0  0  0  0  0  0  0  0  0
  -19.6406   -1.8571    0.0000 O   0  0  0  0  0  0  0  0  0  0  0  0
  -21.1746    0.1190    0.0000 N   0  0  0  0  0  0  0  0  0  0  0  0
  -22.3011   -0.8715    0.0000 C   0  0  0  0  0  0  0  0  0  0  0  0
  -23.0209   -2.1875    0.0000 C   0  0  0  0  0  0  0  0  0  0  0  0
  -24.5205   -2.2221    0.0000 C   0  0  0  0  0  0  0  0  0  0  0  0
  -25.2404   -3.5381    0.0000 C   0  0  0  0  0  0  0  0  0  0  0  0
  -26.7246   -3.7552    0.0000 N   0  0  0  0  0  0  0  0  0  0  0  0
  -24.4606   -4.8194    0.0000 O   0  0  0  0  0  0  0  0  0  0  0  0
  -23.7221   -0.3911    0.0000 C   0  0  0  0  0  0  0  0  0  0  0  0
  -24.0166    1.0797    0.0000 O   0  0  0  0  0  0  0  0  0  0  0  0
  -24.8486   -1.3815    0.0000 N   0  0  0  0  0  0  0  0  0  0  0  0
  -26.2696   -0.9012    0.0000 C   0  0  0  0  0  0  0  0  0  0  0  0
  -27.4406    0.0363    0.0000 C   0  0  0  0  0  0  0  0  0  0  0  0
  -27.2143    1.5191    0.0000 C   0  0  0  0  0  0  0  0  0  0  0  0
  -27.3961   -1.8916    0.0000 C   0  0  0  0  0  0  0  0  0  0  0  0
  -27.2831   -3.3873    0.0000 O   0  0  0  0  0  0  0  0  0  0  0  0
  -28.8171   -1.4112    0.0000 N   0  0  0  0  0  0  0  0  0  0  0  0
  -29.9436   -2.4017    0.0000 C   0  0  0  0  0  0  0  0  0  0  0  0
  -30.6635   -3.7177    0.0000 C   0  0  0  0  0  0  0  0  0  0  0  0
  -32.1631   -3.7523    0.0000 C   0  0  0  0  0  0  0  0  0  0  0  0
  -32.8829   -5.0683    0.0000 C   0  0  0  0  0  0  0  0  0  0  0  0
  -34.3825   -5.1029    0.0000 N   0  0  0  0  0  0  0  0  0  0  0  0
  -35.1023   -6.4189    0.0000 C   0  0  0  0  0  0  0  0  0  0  0  0
  -36.5950   -6.2704    0.0000 N   0  0  0  0  0  0  0  0  0  0  0  0
  -34.3226   -7.7003    0.0000 N   0  0  0  0  0  0  0  0  0  0  0  0
  -31.3647   -1.9213    0.0000 C   0  0  0  0  0  0  0  0  0  0  0  0
  -31.6591   -0.4505    0.0000 O   0  0  0  0  0  0  0  0  0  0  0  0
  -32.4912   -2.9117    0.0000 N   0  0  0  0  0  0  0  0  0  0  0  0
  -33.9122   -2.4314    0.0000 C   0  0  0  0  0  0  0  0  0  0  0  0
  -35.0832   -1.4940    0.0000 C   0  0  0  0  0  0  0  0  0  0  0  0
  -34.8569   -0.0111    0.0000 C   0  0  0  0  0  0  0  0  0  0  0  0
  -36.0279    0.9263    0.0000 C   0  0  0  0  0  0  0  0  0  0  0  0
  -35.8015    2.4091    0.0000 O   0  0  0  0  0  0  0  0  0  0  0  0
  -37.4252    0.3809    0.0000 O   0  0  0  0  0  0  0  0  0  0  0  0
  -35.0387   -3.4218    0.0000 C   0  0  0  0  0  0  0  0  0  0  0  0
  -35.1088   -4.9202    0.0000 O   0  0  0  0  0  0  0  0  0  0  0  0
  -36.4597   -2.9414    0.0000 N   0  0  0  0  0  0  0  0  0  0  0  0
  -37.5862   -3.9319    0.0000 C   0  0  0  0  0  0  0  0  0  0  0  0
  -38.3060   -5.2479    0.0000 C   0  0  0  0  0  0  0  0  0  0  0  0
  -39.8056   -5.2825    0.0000 C   0  0  0  0  0  0  0  0  0  0  0  0
  -40.5254   -6.5985    0.0000 C   0  0  0  0  0  0  0  0  0  0  0  0
  -42.0250   -6.6331    0.0000 N   0  0  0  0  0  0  0  0  0  0  0  0
  -42.7449   -7.9491    0.0000 C   0  0  0  0  0  0  0  0  0  0  0  0
  -44.2445   -7.9837    0.0000 N   0  0  0  0  0  0  0  0  0  0  0  0
  -41.9651   -9.2305    0.0000 N   0  0  0  0  0  0  0  0  0  0  0  0
  -39.0072   -3.4515    0.0000 C   0  0  0  0  0  0  0  0  0  0  0  0
  -40.2460   -4.2972    0.0000 O   0  0  0  0  0  0  0  0  0  0  0  0
  -39.3017   -1.9807    0.0000 O   0  0  0  0  0  0  0  0  0  0  0  0
   25.1133  -13.1310    0.0000 H   0  0  0  0  0  0  0  0  0  0  0  0
   20.6497  -13.6405    0.0000 H   0  0  0  0  0  0  0  0  0  0  0  0
   19.3431  -16.3410    0.0000 H   0  0  0  0  0  0  0  0  0  0  0  0
   25.2562  -15.5449    0.0000 H   0  0  0  0  0  0  0  0  0  0  0  0
   27.4931  -22.3501    0.0000 H   0  0  0  0  0  0  0  0  0  0  0  0
   22.5028  -23.7980    0.0000 H   0  0  0  0  0  0  0  0  0  0  0  0
   21.6668  -20.9168    0.0000 H   0  0  0  0  0  0  0  0  0  0  0  0
   24.3773  -25.5969    0.0000 H   0  0  0  0  0  0  0  0  0  0  0  0
   22.9081  -15.8711    0.0000 H   0  0  0  0  0  0  0  0  0  0  0  0
   25.1640  -13.6663    0.0000 H   0  0  0  0  0  0  0  0  0  0  0  0
   28.7344  -17.3044    0.0000 H   0  0  0  0  0  0  0  0  0  0  0  0
   29.3550  -14.7815    0.0000 H   0  0  0  0  0  0  0  0  0  0  0  0
   24.9484  -10.7214    0.0000 H   0  0  0  0  0  0  0  0  0  0  0  0
   21.5340  -10.6351    0.0000 H   0  0  0  0  0  0  0  0  0  0  0  0
   21.2172   -9.0323    0.0000 H   0  0  0  0  0  0  0  0  0  0  0  0
   24.5773   -8.9626    0.0000 H   0  0  0  0  0  0  0  0  0  0  0  0
   24.4582   -7.3331    0.0000 H   0  0  0  0  0  0  0  0  0  0  0  0
   24.5697   -5.5390    0.0000 H   0  0  0  0  0  0  0  0  0  0  0  0
   23.5994   -3.7930    0.0000 H   0  0  0  0  0  0  0  0  0  0  0  0
   19.7222   -5.8958    0.0000 H   0  0  0  0  0  0  0  0  0  0  0  0
   20.3126   -4.2119    0.0000 H   0  0  0  0  0  0  0  0  0  0  0  0
   22.9991   -6.6421    0.0000 H   0  0  0  0  0  0  0  0  0  0  0  0
   20.4516   -9.4524    0.0000 H   0  0  0  0  0  0  0  0  0  0  0  0
   19.0786   -8.5668    0.0000 H   0  0  0  0  0  0  0  0  0  0  0  0
   19.4593   -6.8235    0.0000 H   0  0  0  0  0  0  0  0  0  0  0  0
   21.7121   -9.4982    0.0000 H   0  0  0  0  0  0  0  0  0  0  0  0
   23.4656   -9.1676    0.0000 H   0  0  0  0  0  0  0  0  0  0  0  0
   23.3057   -6.9793    0.0000 H   0  0  0  0  0  0  0  0  0  0  0  0
   24.3219   -2.4896    0.0000 H   0  0  0  0  0  0  0  0  0  0  0  0
   22.5252   -2.3756    0.0000 H   0  0  0  0  0  0  0  0  0  0  0  0
   21.1379   -2.8639    0.0000 H   0  0  0  0  0  0  0  0  0  0  0  0
   20.4537   -3.3617    0.0000 H   0  0  0  0  0  0  0  0  0  0  0  0
   19.6600   -3.3929    0.0000 H   0  0  0  0  0  0  0  0  0  0  0  0
   19.0530   -3.4372    0.0000 H   0  0  0  0  0  0  0  0  0  0  0  0
   17.5962   -3.2353    0.0000 H   0  0  0  0  0  0  0  0  0  0  0  0
   16.4917   -3.1000    0.0000 H   0  0  0  0  0  0  0  0  0  0  0  0
   24.7272   -2.0544    0.0000 H   0  0  0  0  0  0  0  0  0  0  0  0
   25.5263   -0.4589    0.0000 H   0  0  0  0  0  0  0  0  0  0  0  0
   24.4143    0.7381    0.0000 H   0  0  0  0  0  0  0  0  0  0  0  0
   25.3468    1.9905    0.0000 H   0  0  0  0  0  0  0  0  0  0  0  0
   25.1472    2.9355    0.0000 H   0  0  0  0  0  0  0  0  0  0  0  0
   24.0839    5.9002    0.0000 H   0  0  0  0  0  0  0  0  0  0  0  0
   27.6733    5.0630    0.0000 H   0  0  0  0  0  0  0  0  0  0  0  0
   27.5853    3.2895    0.0000 H   0  0  0  0  0  0  0  0  0  0  0  0
   25.8602    2.8330    0.0000 H   0  0  0  0  0  0  0  0  0  0  0  0
   25.9394    7.5061    0.0000 H   0  0  0  0  0  0  0  0  0  0  0  0
   24.3613    6.6733    0.0000 H   0  0  0  0  0  0  0  0  0  0  0  0
   27.9325    7.3739    0.0000 H   0  0  0  0  0  0  0  0  0  0  0  0
   28.6337    5.5775    0.0000 H   0  0  0  0  0  0  0  0  0  0  0  0
   27.3519    4.5644    0.0000 H   0  0  0  0  0  0  0  0  0  0  0  0
   23.6861    7.4102    0.0000 H   0  0  0  0  0  0  0  0  0  0  0  0
   22.8228    7.8433    0.0000 H   0  0  0  0  0  0  0  0  0  0  0  0
   20.5973   10.1299    0.0000 H   0  0  0  0  0  0  0  0  0  0  0  0
   19.8420    8.8604    0.0000 H   0  0  0  0  0  0  0  0  0  0  0  0
   23.3476    8.3369    0.0000 H   0  0  0  0  0  0  0  0  0  0  0  0
   23.6844   12.0966    0.0000 H   0  0  0  0  0  0  0  0  0  0  0  0
   21.9511   12.5207    0.0000 H   0  0  0  0  0  0  0  0  0  0  0  0
   21.0387   10.9871    0.0000 H   0  0  0  0  0  0  0  0  0  0  0  0
   24.6823   11.3378    0.0000 H   0  0  0  0  0  0  0  0  0  0  0  0
   25.5542    9.7809    0.0000 H   0  0  0  0  0  0  0  0  0  0  0  0
   24.1382    8.4719    0.0000 H   0  0  0  0  0  0  0  0  0  0  0  0
   18.4134    9.4909    0.0000 H   0  0  0  0  0  0  0  0  0  0  0  0
   17.5366    9.0860    0.0000 H   0  0  0  0  0  0  0  0  0  0  0  0
   14.4609    9.1235    0.0000 H   0  0  0  0  0  0  0  0  0  0  0  0
   14.7495    7.5153    0.0000 H   0  0  0  0  0  0  0  0  0  0  0  0
   16.6489   11.3842    0.0000 H   0  0  0  0  0  0  0  0  0  0  0  0
   17.4778    9.8040    0.0000 H   0  0  0  0  0  0  0  0  0  0  0  0
   13.7151   13.2819    0.0000 H   0  0  0  0  0  0  0  0  0  0  0  0
   16.2998   13.0185    0.0000 H   0  0  0  0  0  0  0  0  0  0  0  0
   13.4992    6.6658    0.0000 H   0  0  0  0  0  0  0  0  0  0  0  0
   12.7041    2.0262    0.0000 H   0  0  0  0  0  0  0  0  0  0  0  0
   12.5988    3.8016    0.0000 H   0  0  0  0  0  0  0  0  0  0  0  0
   13.2589    0.2453    0.0000 H   0  0  0  0  0  0  0  0  0  0  0  0
   12.5843    1.3663    0.0000 H   0  0  0  0  0  0  0  0  0  0  0  0
   14.1413   -1.2320    0.0000 H   0  0  0  0  0  0  0  0  0  0  0  0
   13.2798   -0.2473    0.0000 H   0  0  0  0  0  0  0  0  0  0  0  0
   14.8073   -2.1234    0.0000 H   0  0  0  0  0  0  0  0  0  0  0  0
   14.9298    3.0779    0.0000 H   0  0  0  0  0  0  0  0  0  0  0  0
   13.8375    1.6743    0.0000 H   0  0  0  0  0  0  0  0  0  0  0  0
   13.5624    1.0626    0.0000 H   0  0  0  0  0  0  0  0  0  0  0  0
   12.3715    0.5208    0.0000 H   0  0  0  0  0  0  0  0  0  0  0  0
   12.0753    0.1267    0.0000 H   0  0  0  0  0  0  0  0  0  0  0  0
   10.8077   -0.1969    0.0000 H   0  0  0  0  0  0  0  0  0  0  0  0
    9.7539   -0.5543    0.0000 H   0  0  0  0  0  0  0  0  0  0  0  0
   15.1490    8.4962    0.0000 H   0  0  0  0  0  0  0  0  0  0  0  0
   14.8875    9.1839    0.0000 H   0  0  0  0  0  0  0  0  0  0  0  0
   15.4357   10.7507    0.0000 H   0  0  0  0  0  0  0  0  0  0  0  0
   14.1036   11.6665    0.0000 H   0  0  0  0  0  0  0  0  0  0  0  0
   12.6075   10.6601    0.0000 H   0  0  0  0  0  0  0  0  0  0  0  0
   11.6756   12.0366    0.0000 H   0  0  0  0  0  0  0  0  0  0  0  0
   10.7099   12.0522    0.0000 H   0  0  0  0  0  0  0  0  0  0  0  0
    7.8255   13.2911    0.0000 H   0  0  0  0  0  0  0  0  0  0  0  0
    7.5829   11.6753    0.0000 H   0  0  0  0  0  0  0  0  0  0  0  0
    9.0179   14.8936    0.0000 H   0  0  0  0  0  0  0  0  0  0  0  0
   10.9073   14.5080    0.0000 H   0  0  0  0  0  0  0  0  0  0  0  0
   10.9685   12.7246    0.0000 H   0  0  0  0  0  0  0  0  0  0  0  0
    6.0223   11.6235    0.0000 H   0  0  0  0  0  0  0  0  0  0  0  0
    5.4080   10.8783    0.0000 H   0  0  0  0  0  0  0  0  0  0  0  0
    2.6410    9.3955    0.0000 H   0  0  0  0  0  0  0  0  0  0  0  0
    3.7530    8.1985    0.0000 H   0  0  0  0  0  0  0  0  0  0  0  0
    3.6111   12.5637    0.0000 H   0  0  0  0  0  0  0  0  0  0  0  0
    5.0435   11.4996    0.0000 H   0  0  0  0  0  0  0  0  0  0  0  0
    0.1444   13.0006    0.0000 H   0  0  0  0  0  0  0  0  0  0  0  0
    2.5874   13.8847    0.0000 H   0  0  0  0  0  0  0  0  0  0  0  0
    2.8205    6.9460    0.0000 H   0  0  0  0  0  0  0  0  0  0  0  0
    3.9555    2.5070    0.0000 H   0  0  0  0  0  0  0  0  0  0  0  0
    3.2504    3.6091    0.0000 H   0  0  0  0  0  0  0  0  0  0  0  0
    5.0355    1.1479    0.0000 H   0  0  0  0  0  0  0  0  0  0  0  0
    4.2113    1.9369    0.0000 H   0  0  0  0  0  0  0  0  0  0  0  0
    6.8257    0.1089    0.0000 H   0  0  0  0  0  0  0  0  0  0  0  0
    5.5107    0.7676    0.0000 H   0  0  0  0  0  0  0  0  0  0  0  0
    7.8125   -0.4052    0.0000 H   0  0  0  0  0  0  0  0  0  0  0  0
    1.5398    5.2868    0.0000 H   0  0  0  0  0  0  0  0  0  0  0  0
    1.9985    7.0113    0.0000 H   0  0  0  0  0  0  0  0  0  0  0  0
    3.4570    7.2452    0.0000 H   0  0  0  0  0  0  0  0  0  0  0  0
    1.2815    6.1336    0.0000 H   0  0  0  0  0  0  0  0  0  0  0  0
    1.7975    2.7818    0.0000 H   0  0  0  0  0  0  0  0  0  0  0  0
    1.3757    2.0996    0.0000 H   0  0  0  0  0  0  0  0  0  0  0  0
   -2.4678    1.1501    0.0000 H   0  0  0  0  0  0  0  0  0  0  0  0
   -3.0139    2.8489    0.0000 H   0  0  0  0  0  0  0  0  0  0  0  0
   -2.0894    3.7840    0.0000 H   0  0  0  0  0  0  0  0  0  0  0  0
   -1.0394   -0.3956    0.0000 H   0  0  0  0  0  0  0  0  0  0  0  0
   -1.8146    1.0426    0.0000 H   0  0  0  0  0  0  0  0  0  0  0  0
    0.6251   -1.4999    0.0000 H   0  0  0  0  0  0  0  0  0  0  0  0
    2.2724   -0.4974    0.0000 H   0  0  0  0  0  0  0  0  0  0  0  0
    1.7263    1.2014    0.0000 H   0  0  0  0  0  0  0  0  0  0  0  0
   -1.9912    1.7107    0.0000 H   0  0  0  0  0  0  0  0  0  0  0  0
   -2.4671    4.9079    0.0000 H   0  0  0  0  0  0  0  0  0  0  0  0
   -5.9340    5.1073    0.0000 H   0  0  0  0  0  0  0  0  0  0  0  0
   -5.5299    3.5242    0.0000 H   0  0  0  0  0  0  0  0  0  0  0  0
   -2.8177    5.8061    0.0000 H   0  0  0  0  0  0  0  0  0  0  0  0
   -5.4138    8.5465    0.0000 H   0  0  0  0  0  0  0  0  0  0  0  0
   -6.8787    7.5275    0.0000 H   0  0  0  0  0  0  0  0  0  0  0  0
   -6.3326    5.8287    0.0000 H   0  0  0  0  0  0  0  0  0  0  0  0
   -4.1846    8.7926    0.0000 H   0  0  0  0  0  0  0  0  0  0  0  0
   -2.4403    8.4162    0.0000 H   0  0  0  0  0  0  0  0  0  0  0  0
   -2.3959    6.4883    0.0000 H   0  0  0  0  0  0  0  0  0  0  0  0
   -6.3611    4.6033    0.0000 H   0  0  0  0  0  0  0  0  0  0  0  0
   -7.7358    0.8730    0.0000 H   0  0  0  0  0  0  0  0  0  0  0  0
   -5.8450    1.2516    0.0000 H   0  0  0  0  0  0  0  0  0  0  0  0
   -9.2690    0.2081    0.0000 H   0  0  0  0  0  0  0  0  0  0  0  0
  -10.1097    3.3777    0.0000 H   0  0  0  0  0  0  0  0  0  0  0  0
  -13.5765    3.5770    0.0000 H   0  0  0  0  0  0  0  0  0  0  0  0
  -13.1724    1.9940    0.0000 H   0  0  0  0  0  0  0  0  0  0  0  0
  -10.4603    4.2759    0.0000 H   0  0  0  0  0  0  0  0  0  0  0  0
  -13.0564    7.0163    0.0000 H   0  0  0  0  0  0  0  0  0  0  0  0
  -14.5212    5.9973    0.0000 H   0  0  0  0  0  0  0  0  0  0  0  0
  -13.9751    4.2985    0.0000 H   0  0  0  0  0  0  0  0  0  0  0  0
  -11.8272    7.2624    0.0000 H   0  0  0  0  0  0  0  0  0  0  0  0
  -10.0829    6.8859    0.0000 H   0  0  0  0  0  0  0  0  0  0  0  0
  -10.0384    4.9581    0.0000 H   0  0  0  0  0  0  0  0  0  0  0  0
  -14.0036    3.0731    0.0000 H   0  0  0  0  0  0  0  0  0  0  0  0
  -13.4876   -0.2787    0.0000 H   0  0  0  0  0  0  0  0  0  0  0  0
  -15.6047   -2.1401    0.0000 H   0  0  0  0  0  0  0  0  0  0  0  0
  -13.9574   -1.1376    0.0000 H   0  0  0  0  0  0  0  0  0  0  0  0
  -18.2990   -0.2115    0.0000 H   0  0  0  0  0  0  0  0  0  0  0  0
  -17.3745    0.7236    0.0000 H   0  0  0  0  0  0  0  0  0  0  0  0
  -17.2762   -1.3497    0.0000 H   0  0  0  0  0  0  0  0  0  0  0  0
  -17.7522    1.8475    0.0000 H   0  0  0  0  0  0  0  0  0  0  0  0
  -21.1499    2.2165    0.0000 H   0  0  0  0  0  0  0  0  0  0  0  0
  -20.8150    0.4638    0.0000 H   0  0  0  0  0  0  0  0  0  0  0  0
  -18.8519    4.3653    0.0000 H   0  0  0  0  0  0  0  0  0  0  0  0
  -18.1028    2.7457    0.0000 H   0  0  0  0  0  0  0  0  0  0  0  0
  -21.6875    6.4069    0.0000 H   0  0  0  0  0  0  0  0  0  0  0  0
  -19.1191    6.0150    0.0000 H   0  0  0  0  0  0  0  0  0  0  0  0
  -21.6462    1.5429    0.0000 H   0  0  0  0  0  0  0  0  0  0  0  0
  -21.1301   -1.8089    0.0000 H   0  0  0  0  0  0  0  0  0  0  0  0
  -23.2472   -3.6703    0.0000 H   0  0  0  0  0  0  0  0  0  0  0  0
  -21.5999   -2.6678    0.0000 H   0  0  0  0  0  0  0  0  0  0  0  0
  -25.9415   -1.7417    0.0000 H   0  0  0  0  0  0  0  0  0  0  0  0
  -25.0170   -0.8066    0.0000 H   0  0  0  0  0  0  0  0  0  0  0  0
  -27.4598   -4.8887    0.0000 H   0  0  0  0  0  0  0  0  0  0  0  0
  -27.8503   -2.5272    0.0000 H   0  0  0  0  0  0  0  0  0  0  0  0
  -24.9188   -2.8799    0.0000 H   0  0  0  0  0  0  0  0  0  0  0  0
  -25.3947    0.3173    0.0000 H   0  0  0  0  0  0  0  0  0  0  0  0
  -28.7925    0.6863    0.0000 H   0  0  0  0  0  0  0  0  0  0  0  0
  -28.4575   -1.0665    0.0000 H   0  0  0  0  0  0  0  0  0  0  0  0
  -28.3853    2.4565    0.0000 H   0  0  0  0  0  0  0  0  0  0  0  0
  -26.4945    2.8351    0.0000 H   0  0  0  0  0  0  0  0  0  0  0  0
  -25.7454    1.2155    0.0000 H   0  0  0  0  0  0  0  0  0  0  0  0
  -29.2887    0.0127    0.0000 H   0  0  0  0  0  0  0  0  0  0  0  0
  -28.7726   -3.3391    0.0000 H   0  0  0  0  0  0  0  0  0  0  0  0
  -30.7074   -5.2170    0.0000 H   0  0  0  0  0  0  0  0  0  0  0  0
  -29.2425   -4.1980    0.0000 H   0  0  0  0  0  0  0  0  0  0  0  0
  -33.5841   -3.2719    0.0000 H   0  0  0  0  0  0  0  0  0  0  0  0
  -32.6595   -2.3368    0.0000 H   0  0  0  0  0  0  0  0  0  0  0  0
  -33.1092   -6.5511    0.0000 H   0  0  0  0  0  0  0  0  0  0  0  0
  -31.5311   -5.7183    0.0000 H   0  0  0  0  0  0  0  0  0  0  0  0
  -35.4492   -4.0483    0.0000 H   0  0  0  0  0  0  0  0  0  0  0  0
  -37.3218   -7.7695    0.0000 H   0  0  0  0  0  0  0  0  0  0  0  0
  -37.2420   -5.0844    0.0000 H   0  0  0  0  0  0  0  0  0  0  0  0
  -35.0424   -9.0163    0.0000 H   0  0  0  0  0  0  0  0  0  0  0  0
  -32.8230   -7.6657    0.0000 H   0  0  0  0  0  0  0  0  0  0  0  0
  -32.5613   -4.4101    0.0000 H   0  0  0  0  0  0  0  0  0  0  0  0
  -33.0373   -1.2129    0.0000 H   0  0  0  0  0  0  0  0  0  0  0  0
  -36.4350   -0.8440    0.0000 H   0  0  0  0  0  0  0  0  0  0  0  0
  -36.1000   -2.5967    0.0000 H   0  0  0  0  0  0  0  0  0  0  0  0
  -34.1370    1.3049    0.0000 H   0  0  0  0  0  0  0  0  0  0  0  0
  -33.3879   -0.3147    0.0000 H   0  0  0  0  0  0  0  0  0  0  0  0
  -36.9313   -1.5175    0.0000 H   0  0  0  0  0  0  0  0  0  0  0  0
  -36.4152   -4.8693    0.0000 H   0  0  0  0  0  0  0  0  0  0  0  0
  -38.3499   -6.7472    0.0000 H   0  0  0  0  0  0  0  0  0  0  0  0
  -36.8110   -5.3701    0.0000 H   0  0  0  0  0  0  0  0  0  0  0  0
  -41.2266   -4.8021    0.0000 H   0  0  0  0  0  0  0  0  0  0  0  0
  -40.1258   -3.8171    0.0000 H   0  0  0  0  0  0  0  0  0  0  0  0
  -40.7518   -8.0813    0.0000 H   0  0  0  0  0  0  0  0  0  0  0  0
  -39.1736   -7.2485    0.0000 H   0  0  0  0  0  0  0  0  0  0  0  0
  -42.8048   -5.3517    0.0000 H   0  0  0  0  0  0  0  0  0  0  0  0
  -44.9643   -9.2997    0.0000 H   0  0  0  0  0  0  0  0  0  0  0  0
  -45.0242   -6.7023    0.0000 H   0  0  0  0  0  0  0  0  0  0  0  0
  -42.6849  -10.5465    0.0000 H   0  0  0  0  0  0  0  0  0  0  0  0
  -40.4655   -9.1959    0.0000 H   0  0  0  0  0  0  0  0  0  0  0  0
  1  2  1  0
  2  3  1  0
  3  4  2  0
  4  5  1  0
  5  6  2  0
  6  7  1  0
  7  8  2  0
  7  9  1  0
  9 10  1  0
 10 11  1  0
 11 12  2  0
  9 13  1  0
 13 14  1  0
 14 15  2  0
 15 16  1  0
 16 17  2  0
 17 18  1  0
 16 19  1  0
 14 20  1  0
 20 21  1  0
 21 22  2  0
 22 23  1  0
 23 24  2  0
 24 25  1  0
 25 26  2  0
 25 27  1  0
  1 28  2  0
  1 29  1  0
 29 30  1  0
 30 31  1  0
 31 32  1  0
 32 33  2  0
 32 34  1  0
 34 35  1  0
 35 36  1  0
 36 37  1  0
 37 38  1  0
 37 39  1  0
 35 40  1  0
 40 41  2  0
 40 42  1  0
 43 42  1  1
 43 44  1  0
 44 45  1  0
 45 46  1  0
 46 47  1  0
 43 48  1  0
 43 49  1  0
 49 50  2  0
 49 51  1  0
 51 52  1  0
 52 53  1  0
 53 54  1  0
 53 55  1  0
 55 56  1  0
 52 57  1  0
 57 58  2  0
 57 59  1  0
 59 60  1  0
 60 61  1  0
 61 62  1  0
 62 63  1  0
 62 64  1  0
 60 65  1  0
 65 66  2  0
 65 67  1  0
 67 68  1  0
 68 69  1  0
 69 70  1  0
 70 71  1  0
 71 72  1  0
 71 73  2  0
 68 74  1  0
 74 75  2  0
 74 76  1  0
 76 77  1  0
 77 78  1  0
 78 79  1  0
 79 80  1  0
 80 81  1  0
 77 82  1  0
 82 83  1  0
 83 84  1  0
 84 85  1  0
 77 86  1  0
 86 87  2  0
 86 88  1  0
 88 89  1  0
 89 90  1  0
 89 91  1  0
 91 92  2  0
 91 93  1  0
 93 94  1  0
 94 95  1  0
 95 96  1  0
 94 97  1  0
 97 98  2  0
 97 99  1  0
 99100  1  0
100101  1  0
101102  1  0
102103  1  0
103104  1  0
103105  2  0
100106  1  0
106107  2  0
106108  1  0
108109  1  0
109110  1  0
110111  1  0
111112  1  0
112113  1  0
109114  1  0
109115  1  6
115116  2  0
115117  1  0
117118  1  0
118119  1  0
119120  1  0
119121  1  0
121122  1  0
118123  1  0
123124  2  0
123125  1  0
125126  1  0
126127  1  0
127128  1  0
128129  1  0
128130  1  0
126131  1  0
131132  2  0
131133  1  0
133134  1  0
134135  1  0
135136  2  0
135137  1  0
137138  1  0
138139  1  0
139140  1  0
140141  1  0
140142  1  0
138143  1  0
143144  2  0
143145  1  0
145146  1  0
146147  1  0
147148  1  0
148149  1  0
149150  2  0
149151  1  0
146152  1  0
152153  2  0
152154  1  0
154155  1  0
155156  1  0
156157  1  0
157158  1  0
158159  1  0
158160  2  0
155161  1  0
161162  2  0
161163  1  0
163164  1  0
164165  1  0
165166  1  0
166167  1  0
167168  1  0
167169  2  0
164170  1  0
170171  2  0
170172  1  0
172173  1  0
173174  1  0
174175  1  0
173176  1  0
176177  2  0
176178  1  0
178179  1  0
179180  1  0
180181  1  0
181182  1  0
182183  1  0
183184  1  0
184185  2  3
184186  1  0
179187  1  0
187188  2  0
187189  1  0
189190  1  0
190191  1  0
191192  1  0
192193  1  0
193194  2  0
193195  1  0
190196  1  0
196197  2  0
196198  1  0
198199  1  0
199200  1  0
200201  1  0
201202  1  0
202203  1  0
203204  1  0
204205  2  3
204206  1  0
199207  1  0
207208  2  0
207209  1  0
  8  3  1  0
 11  6  1  0
 18 13  2  0
 47 81  2  0
 22  9  1  0
 85113  2  0
 26 21  1  0
  2210  1  0
  4211  1  0
  5212  1  0
  8213  1  0
 15214  1  0
 17215  1  0
 18216  1  0
 19217  1  0
 23218  1  0
 24219  1  0
 26220  1  0
 27221  1  0
 29222  1  0
 30223  1  0
 30224  1  0
 31225  1  0
 31226  1  0
 34227  1  0
 35228  1  1
 36229  1  0
 36230  1  0
 37231  1  0
 38232  1  0
 38233  1  0
 38234  1  0
 39235  1  0
 39236  1  0
 39237  1  0
 42238  1  0
 44239  1  0
 44240  1  0
 45241  1  0
 45242  1  0
 46243  1  0
 46244  1  0
 47245  1  0
 48246  1  0
 48247  1  0
 48248  1  0
 51249  1  0
 52250  1  6
 53251  1  1
 54252  1  0
 54253  1  0
 54254  1  0
 55255  1  0
 55256  1  0
 56257  1  0
 56258  1  0
 56259  1  0
 59260  1  0
 60261  1  6
 61262  1  0
 61263  1  0
 62264  1  0
 63265  1  0
 63266  1  0
 63267  1  0
 64268  1  0
 64269  1  0
 64270  1  0
 67271  1  0
 68272  1  6
 69273  1  0
 69274  1  0
 70275  1  0
 70276  1  0
 72277  1  0
 72278  1  0
 76279  1  0
 78280  1  0
 78281  1  0
 79282  1  0
 79283  1  0
 80284  1  0
 80285  1  0
 81286  1  0
 82287  1  0
 82288  1  0
 83289  1  0
 83290  1  0
 84291  1  0
 84292  1  0
 85293  1  0
 88294  1  0
 89295  1  6
 90296  1  0
 90297  1  0
 90298  1  0
 93299  1  0
 94300  1  6
 95301  1  0
 95302  1  0
 96303  1  0
 96304  1  0
 96305  1  0
 99306  1  0
100307  1  6
101308  1  0
101309  1  0
102310  1  0
102311  1  0
104312  1  0
104313  1  0
108314  1  0
110315  1  0
110316  1  0
111317  1  0
111318  1  0
112319  1  0
112320  1  0
113321  1  0
114322  1  0
114323  1  0
114324  1  0
117325  1  0
118326  1  1
119327  1  1
120328  1  0
120329  1  0
120330  1  0
121331  1  0
121332  1  0
122333  1  0
122334  1  0
122335  1  0
125336  1  0
126337  1  6
127338  1  0
127339  1  0
128340  1  0
129341  1  0
129342  1  0
129343  1  0
130344  1  0
130345  1  0
130346  1  0
133347  1  0
134348  1  0
134349  1  0
137350  1  0
138351  1  6
139352  1  0
139353  1  0
140354  1  0
141355  1  0
141356  1  0
141357  1  0
142358  1  0
142359  1  0
142360  1  0
145361  1  0
146362  1  1
147363  1  0
147364  1  0
148365  1  0
148366  1  0
154367  1  0
155368  1  6
156369  1  0
156370  1  0
157371  1  0
157372  1  0
159373  1  0
159374  1  0
163375  1  0
164376  1  1
165377  1  0
165378  1  0
166379  1  0
166380  1  0
168381  1  0
168382  1  0
172383  1  0
173384  1  6
174385  1  0
174386  1  0
175387  1  0
175388  1  0
175389  1  0
178390  1  0
179391  1  1
180392  1  0
180393  1  0
181394  1  0
181395  1  0
182396  1  0
182397  1  0
183398  1  0
185399  1  0
185400  1  0
186401  1  0
186402  1  0
189403  1  0
190404  1  6
191405  1  0
191406  1  0
192407  1  0
192408  1  0
198409  1  0
199410  1  1
200411  1  0
200412  1  0
201413  1  0
201414  1  0
202415  1  0
202416  1  0
203417  1  0
205418  1  0
205419  1  0
206420  1  0
206421  1  0
M  CHG  5 151  -1 185   1 195  -1 205   1 209  -1
M  END
