
     RDKit          2D

294301  0  0  0  0  0  0  0  0999 V2000
   19.7724   -3.1976    0.0000 C   0  0  0  0  0  0  0  0  0  0  0  0
   21.0891   -2.4790    0.0000 N   0  0  0  0  0  0  0  0  0  0  0  0
   22.3698   -3.2599    0.0000 C   0  0  0  0  0  0  0  0  0  0  0  0
   22.3338   -4.7594    0.0000 C   0  0  0  0  0  0  0  0  0  0  0  0
   23.6145   -5.5404    0.0000 C   0  0  0  0  0  0  0  0  0  0  0  0
   24.9311   -4.8217    0.0000 C   0  0  0  0  0  0  0  0  0  0  0  0
   24.9671   -3.3221    0.0000 C   0  0  0  0  0  0  0  0  0  0  0  0
   23.6864   -2.5412    0.0000 C   0  0  0  0  0  0  0  0  0  0  0  0
   26.4044   -2.8929    0.0000 C   0  0  0  0  0  0  0  0  0  0  0  0
   27.2567   -4.1273    0.0000 O   0  0  0  0  0  0  0  0  0  0  0  0
   26.3462   -5.3193    0.0000 C   0  0  0  0  0  0  0  0  0  0  0  0
   26.7754   -6.7566    0.0000 O   0  0  0  0  0  0  0  0  0  0  0  0
   27.8786   -2.6163    0.0000 C   0  0  0  0  0  0  0  0  0  0  0  0
   28.3762   -1.2013    0.0000 C   0  0  0  0  0  0  0  0  0  0  0  0
   29.8505   -0.9247    0.0000 C   0  0  0  0  0  0  0  0  0  0  0  0
   30.8272   -2.0631    0.0000 C   0  0  0  0  0  0  0  0  0  0  0  0
   30.3296   -3.4782    0.0000 C   0  0  0  0  0  0  0  0  0  0  0  0
   28.8553   -3.7548    0.0000 C   0  0  0  0  0  0  0  0  0  0  0  0
   32.3015   -1.7865    0.0000 O   0  0  0  0  0  0  0  0  0  0  0  0
   27.3995   -0.0628    0.0000 O   0  0  0  0  0  0  0  0  0  0  0  0
   25.9253   -0.3394    0.0000 C   0  0  0  0  0  0  0  0  0  0  0  0
   25.4277   -1.7545    0.0000 C   0  0  0  0  0  0  0  0  0  0  0  0
   24.1856   -1.3707    0.0000 C   0  0  0  0  0  0  0  0  0  0  0  0
   23.6647   -0.7636    0.0000 C   0  0  0  0  0  0  0  0  0  0  0  0
   23.9301   -0.0089    0.0000 C   0  0  0  0  0  0  0  0  0  0  0  0
   24.7164    0.1387    0.0000 C   0  0  0  0  0  0  0  0  0  0  0  0
   22.4976    1.6609    0.0000 O   0  0  0  0  0  0  0  0  0  0  0  0
   19.7365   -4.6972    0.0000 S   0  0  0  0  0  0  0  0  0  0  0  0
   18.4917   -2.4167    0.0000 N   0  0  0  0  0  0  0  0  0  0  0  0
   17.1751   -3.1353    0.0000 C   0  0  0  0  0  0  0  0  0  0  0  0
   15.8944   -2.3544    0.0000 C   0  0  0  0  0  0  0  0  0  0  0  0
   14.5778   -3.0731    0.0000 C   0  0  0  0  0  0  0  0  0  0  0  0
   14.7521   -3.8509    0.0000 O   0  0  0  0  0  0  0  0  0  0  0  0
   13.2971   -2.2921    0.0000 N   0  0  0  0  0  0  0  0  0  0  0  0
   11.9804   -3.0108    0.0000 C   0  0  0  0  0  0  0  0  0  0  0  0
   12.9168   -4.1826    0.0000 C   0  0  0  0  0  0  0  0  0  0  0  0
   14.3998   -3.9576    0.0000 C   0  0  0  0  0  0  0  0  0  0  0  0
   15.3362   -5.1295    0.0000 N   0  0  0  0  0  0  0  0  0  0  0  0
   15.2682   -2.7346    0.0000 O   0  0  0  0  0  0  0  0  0  0  0  0
   10.4974   -3.2358    0.0000 C   0  0  0  0  0  0  0  0  0  0  0  0
   10.3050   -4.7234    0.0000 O   0  0  0  0  0  0  0  0  0  0  0  0
    9.5610   -2.0639    0.0000 N   0  0  0  0  0  0  0  0  0  0  0  0
    8.0780   -2.2889    0.0000 C   0  0  0  0  0  0  0  0  0  0  0  0
    8.5571   -3.7104    0.0000 C   0  0  0  0  0  0  0  0  0  0  0  0
   10.0277   -4.0062    0.0000 C   0  0  0  0  0  0  0  0  0  0  0  0
   10.5067   -5.4276    0.0000 C   0  0  0  0  0  0  0  0  0  0  0  0
   11.9303   -5.9004    0.0000 O   0  0  0  0  0  0  0  0  0  0  0  0
    9.5153   -6.5532    0.0000 O   0  0  0  0  0  0  0  0  0  0  0  0
    6.6075   -1.9931    0.0000 C   0  0  0  0  0  0  0  0  0  0  0  0
    5.9179   -3.3252    0.0000 O   0  0  0  0  0  0  0  0  0  0  0  0
    6.1284   -0.5717    0.0000 N   0  0  0  0  0  0  0  0  0  0  0  0
    4.6578   -0.2759    0.0000 C   0  0  0  0  0  0  0  0  0  0  0  0
    4.6219   -1.7755    0.0000 C   0  0  0  0  0  0  0  0  0  0  0  0
    5.9026   -2.5564    0.0000 C   0  0  0  0  0  0  0  0  0  0  0  0
    5.8666   -4.0559    0.0000 C   0  0  0  0  0  0  0  0  0  0  0  0
    7.3731   -2.8522    0.0000 C   0  0  0  0  0  0  0  0  0  0  0  0
    3.3771    0.5050    0.0000 C   0  0  0  0  0  0  0  0  0  0  0  0
    2.2735   -0.5108    0.0000 O   0  0  0  0  0  0  0  0  0  0  0  0
    3.4131    2.0046    0.0000 N   0  0  0  0  0  0  0  0  0  0  0  0
    2.1324    2.7855    0.0000 C   0  0  0  0  0  0  0  0  0  0  0  0
    2.0014    1.2913    0.0000 C   0  0  0  0  0  0  0  0  0  0  0  0
    1.5900   -0.1512    0.0000 C   0  0  0  0  0  0  0  0  0  0  0  0
    0.9130   -1.4898    0.0000 C   0  0  0  0  0  0  0  0  0  0  0  0
   -0.0050   -2.6760    0.0000 C   0  0  0  0  0  0  0  0  0  0  0  0
   -1.1310   -3.6671    0.0000 C   0  0  0  0  0  0  0  0  0  0  0  0
   -2.4242   -4.4271    0.0000 C   0  0  0  0  0  0  0  0  0  0  0  0
   -3.8378   -4.9287    0.0000 C   0  0  0  0  0  0  0  0  0  0  0  0
    3.4008    3.5862    0.0000 C   0  0  0  0  0  0  0  0  0  0  0  0
    1.9782    4.2776    0.0000 C   0  0  0  0  0  0  0  0  0  0  0  0
    3.4019    4.7499    0.0000 O   0  0  0  0  0  0  0  0  0  0  0  0
    1.5445    5.7135    0.0000 N   0  0  0  0  0  0  0  0  0  0  0  0
    0.8468    7.0414    0.0000 C   0  0  0  0  0  0  0  0  0  0  0  0
    1.4810    8.4007    0.0000 C   0  0  0  0  0  0  0  0  0  0  0  0
    2.9753    8.5312    0.0000 C   0  0  0  0  0  0  0  0  0  0  0  0
    3.6094    9.8906    0.0000 C   0  0  0  0  0  0  0  0  0  0  0  0
    5.1037   10.0210    0.0000 N   0  0  0  0  0  0  0  0  0  0  0  0
    5.7379   11.3804    0.0000 C   0  0  0  0  0  0  0  0  0  0  0  0
    7.2322   11.5109    0.0000 N   0  0  0  0  0  0  0  0  0  0  0  0
    4.8778   12.6093    0.0000 N   0  0  0  0  0  0  0  0  0  0  0  0
   -0.0896    8.2132    0.0000 C   0  0  0  0  0  0  0  0  0  0  0  0
    0.8527    9.3803    0.0000 O   0  0  0  0  0  0  0  0  0  0  0  0
   -1.2308    9.1867    0.0000 N   0  0  0  0  0  0  0  0  0  0  0  0
   -2.5356    9.9266    0.0000 C   0  0  0  0  0  0  0  0  0  0  0  0
   -2.7370   11.4130    0.0000 C   0  0  0  0  0  0  0  0  0  0  0  0
   -1.5505   12.3306    0.0000 O   0  0  0  0  0  0  0  0  0  0  0  0
   -3.9569   10.4062    0.0000 C   0  0  0  0  0  0  0  0  0  0  0  0
   -3.7951   11.8974    0.0000 O   0  0  0  0  0  0  0  0  0  0  0  0
   -5.4432   10.6081    0.0000 N   0  0  0  0  0  0  0  0  0  0  0  0
   -6.9409   10.5251    0.0000 C   0  0  0  0  0  0  0  0  0  0  0  0
   -7.9140   11.6666    0.0000 C   0  0  0  0  0  0  0  0  0  0  0  0
   -7.4119   13.0801    0.0000 C   0  0  0  0  0  0  0  0  0  0  0  0
   -5.9368   13.3521    0.0000 C   0  0  0  0  0  0  0  0  0  0  0  0
   -5.4347   14.7655    0.0000 C   0  0  0  0  0  0  0  0  0  0  0  0
   -6.4078   15.9071    0.0000 C   0  0  0  0  0  0  0  0  0  0  0  0
   -7.8829   15.6352    0.0000 C   0  0  0  0  0  0  0  0  0  0  0  0
   -8.3850   14.2217    0.0000 C   0  0  0  0  0  0  0  0  0  0  0  0
   -8.3958   10.1602    0.0000 C   0  0  0  0  0  0  0  0  0  0  0  0
   -9.0660   11.5021    0.0000 O   0  0  0  0  0  0  0  0  0  0  0  0
   -9.7554    9.5265    0.0000 N   0  0  0  0  0  0  0  0  0  0  0  0
  -10.9705    8.6469    0.0000 C   0  0  0  0  0  0  0  0  0  0  0  0
  -12.4063    9.0812    0.0000 C   0  0  0  0  0  0  0  0  0  0  0  0
  -12.7481   10.5417    0.0000 C   0  0  0  0  0  0  0  0  0  0  0  0
  -11.6541   11.5680    0.0000 C   0  0  0  0  0  0  0  0  0  0  0  0
  -11.9959   13.0285    0.0000 C   0  0  0  0  0  0  0  0  0  0  0  0
  -13.4317   13.4628    0.0000 C   0  0  0  0  0  0  0  0  0  0  0  0
  -14.5256   12.4365    0.0000 C   0  0  0  0  0  0  0  0  0  0  0  0
  -14.1838   10.9759    0.0000 C   0  0  0  0  0  0  0  0  0  0  0  0
  -11.9971    7.5533    0.0000 C   0  0  0  0  0  0  0  0  0  0  0  0
  -13.2864    8.3199    0.0000 O   0  0  0  0  0  0  0  0  0  0  0  0
  -12.7983    6.2852    0.0000 N   0  0  0  0  0  0  0  0  0  0  0  0
  -13.3450    4.8883    0.0000 C   0  0  0  0  0  0  0  0  0  0  0  0
  -14.7876    4.4774    0.0000 C   0  0  0  0  0  0  0  0  0  0  0  0
  -13.6174    3.4133    0.0000 C   0  0  0  0  0  0  0  0  0  0  0  0
  -15.1165    3.3612    0.0000 O   0  0  0  0  0  0  0  0  0  0  0  0
  -13.6057    1.9133    0.0000 N   0  0  0  0  0  0  0  0  0  0  0  0
  -13.3104    0.4427    0.0000 C   0  0  0  0  0  0  0  0  0  0  0  0
  -14.3019   -0.6829    0.0000 C   0  0  0  0  0  0  0  0  0  0  0  0
  -15.7724   -0.3871    0.0000 C   0  0  0  0  0  0  0  0  0  0  0  0
  -16.7639   -1.5128    0.0000 C   0  0  0  0  0  0  0  0  0  0  0  0
  -17.0531    0.3938    0.0000 C   0  0  0  0  0  0  0  0  0  0  0  0
  -12.7422   -0.9455    0.0000 C   0  0  0  0  0  0  0  0  0  0  0  0
  -13.9751   -1.7998    0.0000 O   0  0  0  0  0  0  0  0  0  0  0  0
  -11.9214   -2.2010    0.0000 N   0  0  0  0  0  0  0  0  0  0  0  0
  -10.8779   -3.2786    0.0000 C   0  0  0  0  0  0  0  0  0  0  0  0
   -9.6493   -4.1392    0.0000 C   0  0  0  0  0  0  0  0  0  0  0  0
   -8.2801   -4.7517    0.0000 C   0  0  0  0  0  0  0  0  0  0  0  0
   -6.8197   -5.0940    0.0000 C   0  0  0  0  0  0  0  0  0  0  0  0
   -5.3209   -5.1537    0.0000 C   0  0  0  0  0  0  0  0  0  0  0  0
  -12.3068   -3.7351    0.0000 C   0  0  0  0  0  0  0  0  0  0  0  0
  -11.1034   -4.7615    0.0000 C   0  0  0  0  0  0  0  0  0  0  0  0
  -10.1934   -5.9539    0.0000 O   0  0  0  0  0  0  0  0  0  0  0  0
  -12.5004   -5.3077    0.0000 N   0  0  0  0  0  0  0  0  0  0  0  0
  -12.7259   -6.7907    0.0000 C   0  0  0  0  0  0  0  0  0  0  0  0
  -12.4306   -8.2613    0.0000 C   0  0  0  0  0  0  0  0  0  0  0  0
  -13.5566   -9.2524    0.0000 C   0  0  0  0  0  0  0  0  0  0  0  0
  -13.2613  -10.7230    0.0000 O   0  0  0  0  0  0  0  0  0  0  0  0
  -15.0517   -9.1310    0.0000 O   0  0  0  0  0  0  0  0  0  0  0  0
  -14.1230   -7.3369    0.0000 C   0  0  0  0  0  0  0  0  0  0  0  0
  -15.2945   -6.4001    0.0000 O   0  0  0  0  0  0  0  0  0  0  0  0
  -14.3484   -8.8198    0.0000 N   0  0  0  0  0  0  0  0  0  0  0  0
  -15.7455   -9.3660    0.0000 C   0  0  0  0  0  0  0  0  0  0  0  0
  -17.2451   -9.4014    0.0000 C   0  0  0  0  0  0  0  0  0  0  0  0
  -18.3882  -10.3726    0.0000 O   0  0  0  0  0  0  0  0  0  0  0  0
  -15.9710  -10.8490    0.0000 C   0  0  0  0  0  0  0  0  0  0  0  0
  -14.7994  -11.7857    0.0000 O   0  0  0  0  0  0  0  0  0  0  0  0
  -17.3680  -11.3952    0.0000 N   0  0  0  0  0  0  0  0  0  0  0  0
  -17.5935  -12.8781    0.0000 C   0  0  0  0  0  0  0  0  0  0  0  0
  -17.2982  -14.3487    0.0000 C   0  0  0  0  0  0  0  0  0  0  0  0
  -18.4242  -15.3398    0.0000 C   0  0  0  0  0  0  0  0  0  0  0  0
  -16.5177  -15.6297    0.0000 C   0  0  0  0  0  0  0  0  0  0  0  0
  -15.0181  -15.5943    0.0000 C   0  0  0  0  0  0  0  0  0  0  0  0
  -18.9905  -13.4243    0.0000 C   0  0  0  0  0  0  0  0  0  0  0  0
  -19.3951  -14.8687    0.0000 O   0  0  0  0  0  0  0  0  0  0  0  0
  -20.1620  -12.4875    0.0000 O   0  0  0  0  0  0  0  0  0  0  0  0
   20.9420   -0.9862    0.0000 H   0  0  0  0  0  0  0  0  0  0  0  0
   21.0172   -5.4781    0.0000 H   0  0  0  0  0  0  0  0  0  0  0  0
   23.5785   -7.0399    0.0000 H   0  0  0  0  0  0  0  0  0  0  0  0
   23.3584   -1.0775    0.0000 H   0  0  0  0  0  0  0  0  0  0  0  0
   30.3481    0.4904    0.0000 H   0  0  0  0  0  0  0  0  0  0  0  0
   31.3063   -4.6166    0.0000 H   0  0  0  0  0  0  0  0  0  0  0  0
   28.3577   -5.1699    0.0000 H   0  0  0  0  0  0  0  0  0  0  0  0
   33.2782   -2.9250    0.0000 H   0  0  0  0  0  0  0  0  0  0  0  0
   23.4558   -3.4462    0.0000 H   0  0  0  0  0  0  0  0  0  0  0  0
   21.4797   -0.9875    0.0000 H   0  0  0  0  0  0  0  0  0  0  0  0
   25.4462    2.2141    0.0000 H   0  0  0  0  0  0  0  0  0  0  0  0
   22.9952    3.0759    0.0000 H   0  0  0  0  0  0  0  0  0  0  0  0
   18.5277   -0.9171    0.0000 H   0  0  0  0  0  0  0  0  0  0  0  0
   18.1115   -4.3072    0.0000 H   0  0  0  0  0  0  0  0  0  0  0  0
   16.3282   -4.3734    0.0000 H   0  0  0  0  0  0  0  0  0  0  0  0
   16.8858   -1.2288    0.0000 H   0  0  0  0  0  0  0  0  0  0  0  0
   14.9580   -1.1826    0.0000 H   0  0  0  0  0  0  0  0  0  0  0  0
   13.3330   -0.7926    0.0000 H   0  0  0  0  0  0  0  0  0  0  0  0
   11.5013   -1.5894    0.0000 H   0  0  0  0  0  0  0  0  0  0  0  0
   13.3959   -5.6041    0.0000 H   0  0  0  0  0  0  0  0  0  0  0  0
   11.6976   -5.0564    0.0000 H   0  0  0  0  0  0  0  0  0  0  0  0
   16.8356   -5.0869    0.0000 H   0  0  0  0  0  0  0  0  0  0  0  0
   14.7895   -6.5263    0.0000 H   0  0  0  0  0  0  0  0  0  0  0  0
   10.1077   -0.6671    0.0000 H   0  0  0  0  0  0  0  0  0  0  0  0
    8.2965   -0.8049    0.0000 H   0  0  0  0  0  0  0  0  0  0  0  0
    8.5212   -5.2099    0.0000 H   0  0  0  0  0  0  0  0  0  0  0  0
    7.1726   -4.2875    0.0000 H   0  0  0  0  0  0  0  0  0  0  0  0
   11.5107   -3.7812    0.0000 H   0  0  0  0  0  0  0  0  0  0  0  0
   10.4254   -2.5598    0.0000 H   0  0  0  0  0  0  0  0  0  0  0  0
    7.1198    0.5539    0.0000 H   0  0  0  0  0  0  0  0  0  0  0  0
    5.2045    1.1210    0.0000 H   0  0  0  0  0  0  0  0  0  0  0  0
    3.9090   -3.0952    0.0000 H   0  0  0  0  0  0  0  0  0  0  0  0
    3.1513   -1.4796    0.0000 H   0  0  0  0  0  0  0  0  0  0  0  0
    6.7710   -1.3333    0.0000 H   0  0  0  0  0  0  0  0  0  0  0  0
    6.9203   -5.1235    0.0000 H   0  0  0  0  0  0  0  0  0  0  0  0
    5.3199   -5.4528    0.0000 H   0  0  0  0  0  0  0  0  0  0  0  0
    4.3710   -3.9416    0.0000 H   0  0  0  0  0  0  0  0  0  0  0  0
    7.8522   -4.2736    0.0000 H   0  0  0  0  0  0  0  0  0  0  0  0
    8.8665   -2.9927    0.0000 H   0  0  0  0  0  0  0  0  0  0  0  0
    7.2260   -1.3594    0.0000 H   0  0  0  0  0  0  0  0  0  0  0  0
    4.8075    2.5574    0.0000 H   0  0  0  0  0  0  0  0  0  0  0  0
    3.4891    1.4832    0.0000 H   0  0  0  0  0  0  0  0  0  0  0  0
    2.9799    0.1543    0.0000 H   0  0  0  0  0  0  0  0  0  0  0  0
    3.0646   -0.4261    0.0000 H   0  0  0  0  0  0  0  0  0  0  0  0
    2.4887   -1.3522    0.0000 H   0  0  0  0  0  0  0  0  0  0  0  0
    2.4130   -1.5019    0.0000 H   0  0  0  0  0  0  0  0  0  0  0  0
    1.7278   -2.7492    0.0000 H   0  0  0  0  0  0  0  0  0  0  0  0
    1.4185   -3.1489    0.0000 H   0  0  0  0  0  0  0  0  0  0  0  0
    0.5567   -4.0669    0.0000 H   0  0  0  0  0  0  0  0  0  0  0  0
    0.1773   -4.4008    0.0000 H   0  0  0  0  0  0  0  0  0  0  0  0
   -0.8427   -5.1391    0.0000 H   0  0  0  0  0  0  0  0  0  0  0  0
   -1.2784   -5.3952    0.0000 H   0  0  0  0  0  0  0  0  0  0  0  0
   -2.6025   -5.9165    0.0000 H   0  0  0  0  0  0  0  0  0  0  0  0
   -3.4729   -6.3837    0.0000 H   0  0  0  0  0  0  0  0  0  0  0  0
    4.8036    3.0552    0.0000 H   0  0  0  0  0  0  0  0  0  0  0  0
    4.4566    4.6517    0.0000 H   0  0  0  0  0  0  0  0  0  0  0  0
    2.6906    4.9074    0.0000 H   0  0  0  0  0  0  0  0  0  0  0  0
    2.9916    6.1083    0.0000 H   0  0  0  0  0  0  0  0  0  0  0  0
    2.3395    6.8938    0.0000 H   0  0  0  0  0  0  0  0  0  0  0  0
    1.6119    9.8950    0.0000 H   0  0  0  0  0  0  0  0  0  0  0  0
    0.1692    9.1282    0.0000 H   0  0  0  0  0  0  0  0  0  0  0  0
    4.4241    8.1427    0.0000 H   0  0  0  0  0  0  0  0  0  0  0  0
    3.2098    7.0496    0.0000 H   0  0  0  0  0  0  0  0  0  0  0  0
    3.7404   11.3848    0.0000 H   0  0  0  0  0  0  0  0  0  0  0  0
    2.2188   10.4527    0.0000 H   0  0  0  0  0  0  0  0  0  0  0  0
    5.9639    8.7922    0.0000 H   0  0  0  0  0  0  0  0  0  0  0  0
    7.8664   12.8702    0.0000 H   0  0  0  0  0  0  0  0  0  0  0  0
    8.0924   10.2820    0.0000 H   0  0  0  0  0  0  0  0  0  0  0  0
    5.5119   13.9686    0.0000 H   0  0  0  0  0  0  0  0  0  0  0  0
    3.3834   12.4788    0.0000 H   0  0  0  0  0  0  0  0  0  0  0  0
   -0.3702   10.4153    0.0000 H   0  0  0  0  0  0  0  0  0  0  0  0
   -1.2932   10.7671    0.0000 H   0  0  0  0  0  0  0  0  0  0  0  0
   -3.2676   12.8160    0.0000 H   0  0  0  0  0  0  0  0  0  0  0  0
   -4.2339   11.3158    0.0000 H   0  0  0  0  0  0  0  0  0  0  0  0
   -1.7519   13.8171    0.0000 H   0  0  0  0  0  0  0  0  0  0  0  0
   -5.2012   12.0885    0.0000 H   0  0  0  0  0  0  0  0  0  0  0  0
   -6.3502   11.9039    0.0000 H   0  0  0  0  0  0  0  0  0  0  0  0
   -9.1189   12.5601    0.0000 H   0  0  0  0  0  0  0  0  0  0  0  0
   -9.1207   10.7756    0.0000 H   0  0  0  0  0  0  0  0  0  0  0  0
   -4.8318   12.3376    0.0000 H   0  0  0  0  0  0  0  0  0  0  0  0
   -3.9595   15.0375    0.0000 H   0  0  0  0  0  0  0  0  0  0  0  0
   -5.9057   17.3206    0.0000 H   0  0  0  0  0  0  0  0  0  0  0  0
   -8.8560   16.7767    0.0000 H   0  0  0  0  0  0  0  0  0  0  0  0
   -9.8601   13.9497    0.0000 H   0  0  0  0  0  0  0  0  0  0  0  0
  -10.3522   10.9026    0.0000 H   0  0  0  0  0  0  0  0  0  0  0  0
  -11.2190   10.1262    0.0000 H   0  0  0  0  0  0  0  0  0  0  0  0
  -13.9029    9.1813    0.0000 H   0  0  0  0  0  0  0  0  0  0  0  0
  -12.9397    7.6792    0.0000 H   0  0  0  0  0  0  0  0  0  0  0  0
  -10.1761   11.3120    0.0000 H   0  0  0  0  0  0  0  0  0  0  0  0
  -10.9020   14.0548    0.0000 H   0  0  0  0  0  0  0  0  0  0  0  0
  -13.7735   14.9233    0.0000 H   0  0  0  0  0  0  0  0  0  0  0  0
  -15.9614   12.8707    0.0000 H   0  0  0  0  0  0  0  0  0  0  0  0
  -15.2778    9.9497    0.0000 H   0  0  0  0  0  0  0  0  0  0  0  0
  -14.1368    6.9621    0.0000 H   0  0  0  0  0  0  0  0  0  0  0  0
  -14.3538    5.9984    0.0000 H   0  0  0  0  0  0  0  0  0  0  0  0
  -15.8647    5.5213    0.0000 H   0  0  0  0  0  0  0  0  0  0  0  0
  -16.1008    3.7525    0.0000 H   0  0  0  0  0  0  0  0  0  0  0  0
  -14.4784    3.0096    0.0000 H   0  0  0  0  0  0  0  0  0  0  0  0
  -15.1055    1.9422    0.0000 H   0  0  0  0  0  0  0  0  0  0  0  0
  -14.7011    1.0049    0.0000 H   0  0  0  0  0  0  0  0  0  0  0  0
  -14.8486   -2.0798    0.0000 H   0  0  0  0  0  0  0  0  0  0  0  0
  -13.2482   -1.7505    0.0000 H   0  0  0  0  0  0  0  0  0  0  0  0
  -15.5800    1.1005    0.0000 H   0  0  0  0  0  0  0  0  0  0  0  0
  -18.2595   -1.3984    0.0000 H   0  0  0  0  0  0  0  0  0  0  0  0
  -17.3105   -2.9096    0.0000 H   0  0  0  0  0  0  0  0  0  0  0  0
  -15.5879   -2.4440    0.0000 H   0  0  0  0  0  0  0  0  0  0  0  0
  -18.4475   -0.1590    0.0000 H   0  0  0  0  0  0  0  0  0  0  0  0
  -17.9895    1.5656    0.0000 H   0  0  0  0  0  0  0  0  0  0  0  0
  -16.0617    1.5194    0.0000 H   0  0  0  0  0  0  0  0  0  0  0  0
  -13.1987   -2.9876    0.0000 H   0  0  0  0  0  0  0  0  0  0  0  0
   -9.5901   -5.6380    0.0000 H   0  0  0  0  0  0  0  0  0  0  0  0
  -10.7529   -5.1550    0.0000 H   0  0  0  0  0  0  0  0  0  0  0  0
   -8.1189   -6.2430    0.0000 H   0  0  0  0  0  0  0  0  0  0  0  0
   -9.1715   -5.9581    0.0000 H   0  0  0  0  0  0  0  0  0  0  0  0
   -6.2076   -6.4634    0.0000 H   0  0  0  0  0  0  0  0  0  0  0  0
   -7.6268   -6.3583    0.0000 H   0  0  0  0  0  0  0  0  0  0  0  0
   -5.2379   -6.6514    0.0000 H   0  0  0  0  0  0  0  0  0  0  0  0
  -12.9710   -5.0800    0.0000 H   0  0  0  0  0  0  0  0  0  0  0  0
  -13.8056   -3.6753    0.0000 H   0  0  0  0  0  0  0  0  0  0  0  0
  -12.8619   -2.3416    0.0000 H   0  0  0  0  0  0  0  0  0  0  0  0
  -13.7774   -4.5207    0.0000 H   0  0  0  0  0  0  0  0  0  0  0  0
  -11.2263   -6.7552    0.0000 H   0  0  0  0  0  0  0  0  0  0  0  0
  -11.6501   -9.5423    0.0000 H   0  0  0  0  0  0  0  0  0  0  0  0
  -11.0336   -7.7151    0.0000 H   0  0  0  0  0  0  0  0  0  0  0  0
  -13.4384  -10.0122    0.0000 H   0  0  0  0  0  0  0  0  0  0  0  0
  -16.0408   -7.8954    0.0000 H   0  0  0  0  0  0  0  0  0  0  0  0
  -18.6663   -8.9219    0.0000 H   0  0  0  0  0  0  0  0  0  0  0  0
  -17.0196   -7.9185    0.0000 H   0  0  0  0  0  0  0  0  0  0  0  0
  -19.4637  -10.7533    0.0000 H   0  0  0  0  0  0  0  0  0  0  0  0
  -18.6450  -10.6082    0.0000 H   0  0  0  0  0  0  0  0  0  0  0  0
  -16.0939  -12.8427    0.0000 H   0  0  0  0  0  0  0  0  0  0  0  0
  -15.9782  -13.6363    0.0000 H   0  0  0  0  0  0  0  0  0  0  0  0
  -18.3103  -16.8355    0.0000 H   0  0  0  0  0  0  0  0  0  0  0  0
  -19.8212  -15.8860    0.0000 H   0  0  0  0  0  0  0  0  0  0  0  0
  -19.6119  -14.4237    0.0000 H   0  0  0  0  0  0  0  0  0  0  0  0
  -16.2224  -17.1003    0.0000 H   0  0  0  0  0  0  0  0  0  0  0  0
  -17.8377  -16.3421    0.0000 H   0  0  0  0  0  0  0  0  0  0  0  0
  -14.2376  -16.8752    0.0000 H   0  0  0  0  0  0  0  0  0  0  0  0
  -13.6211  -15.0481    0.0000 H   0  0  0  0  0  0  0  0  0  0  0  0
  -15.1320  -14.0986    0.0000 H   0  0  0  0  0  0  0  0  0  0  0  0
  1  2  1  0
  2  3  1  0
  3  4  2  0
  4  5  1  0
  5  6  2  0
  6  7  1  0
  7  8  2  0
  7  9  1  0
  9 10  1  0
 10 11  1  0
 11 12  2  0
  9 13  1  0
 13 14  1  0
 14 15  2  0
 15 16  1  0
 16 17  2  0
 17 18  1  0
 16 19  1  0
 14 20  1  0
 20 21  1  0
 21 22  2  0
 22 23  1  0
 23 24  2  0
 24 25  1  0
 25 26  2  0
 25 27  1  0
  1 28  2  0
  1 29  1  0
 29 30  1  0
 30 31  1  0
 31 32  1  0
 32 33  2  0
 32 34  1  0
 34 35  1  0
 35 36  1  0
 36 37  1  0
 37 38  1  0
 37 39  2  0
 35 40  1  0
 40 41  2  0
 40 42  1  0
 42 43  1  0
 43 44  1  0
 44 45  1  0
 45 46  1  0
 46 47  2  0
 46 48  1  0
 43 49  1  0
 49 50  2  0
 49 51  1  0
 51 52  1  0
 52 53  1  0
 53 54  1  0
 54 55  1  0
 54 56  1  0
 52 57  1  0
 57 58  2  0
 57 59  1  0
 60 59  1  6
 60 61  1  0
 61 62  1  0
 62 63  1  0
 63 64  1  0
 64 65  1  0
 65 66  1  0
 66 67  1  0
 60 68  1  0
 60 69  1  0
 69 70  2  0
 69 71  1  0
 71 72  1  0
 72 73  1  0
 73 74  1  0
 74 75  1  0
 75 76  1  0
 76 77  1  0
 77 78  2  3
 77 79  1  0
 72 80  1  0
 80 81  2  0
 80 82  1  0
 82 83  1  0
 83 84  1  0
 84 85  1  0
 83 86  1  0
 86 87  2  0
 86 88  1  0
 88 89  1  0
 89 90  1  0
 90 91  1  0
 91 92  2  0
 92 93  1  0
 93 94  2  0
 94 95  1  0
 95 96  2  0
 89 97  1  0
 97 98  2  0
 97 99  1  0
 99100  1  0
100101  1  0
101102  1  0
102103  2  0
103104  1  0
104105  2  0
105106  1  0
106107  2  0
100108  1  0
108109  2  0
108110  1  0
110111  1  0
111112  1  0
111113  1  0
113114  2  0
113115  1  0
115116  1  0
116117  1  0
117118  1  0
118119  1  0
118120  1  0
116121  1  0
121122  2  0
121123  1  0
123124  1  0
124125  1  0
125126  1  0
126127  1  0
127128  1  0
124129  1  0
124130  1  1
130131  2  0
130132  1  0
132133  1  0
133134  1  0
134135  1  0
135136  2  0
135137  1  0
133138  1  0
138139  2  0
138140  1  0
140141  1  0
141142  1  0
142143  1  0
141144  1  0
144145  2  0
144146  1  0
146147  1  0
147148  1  0
148149  1  0
148150  1  0
150151  1  0
147152  1  0
152153  2  0
152154  1  0
  8  3  1  0
 96 91  1  0
107102  1  0
 11  6  1  0
 18 13  2  0
 67128  2  0
 22  9  1  0
 26 21  1  0
  2155  1  0
  4156  1  0
  5157  1  0
  8158  1  0
 15159  1  0
 17160  1  0
 18161  1  0
 19162  1  0
 23163  1  0
 24164  1  0
 26165  1  0
 27166  1  0
 29167  1  0
 30168  1  0
 30169  1  0
 31170  1  0
 31171  1  0
 34172  1  0
 35173  1  1
 36174  1  0
 36175  1  0
 38176  1  0
 38177  1  0
 42178  1  0
 43179  1  1
 44180  1  0
 44181  1  0
 45182  1  0
 45183  1  0
 51184  1  0
 52185  1  1
 53186  1  0
 53187  1  0
 54188  1  0
 55189  1  0
 55190  1  0
 55191  1  0
 56192  1  0
 56193  1  0
 56194  1  0
 59195  1  0
 61196  1  0
 61197  1  0
 62198  1  0
 62199  1  0
 63200  1  0
 63201  1  0
 64202  1  0
 64203  1  0
 65204  1  0
 65205  1  0
 66206  1  0
 66207  1  0
 67208  1  0
 68209  1  0
 68210  1  0
 68211  1  0
 71212  1  0
 72213  1  6
 73214  1  0
 73215  1  0
 74216  1  0
 74217  1  0
 75218  1  0
 75219  1  0
 76220  1  0
 78221  1  0
 78222  1  0
 79223  1  0
 79224  1  0
 82225  1  0
 83226  1  6
 84227  1  0
 84228  1  0
 85229  1  0
 88230  1  0
 89231  1  6
 90232  1  0
 90233  1  0
 92234  1  0
 93235  1  0
 94236  1  0
 95237  1  0
 96238  1  0
 99239  1  0
100240  1  6
101241  1  0
101242  1  0
103243  1  0
104244  1  0
105245  1  0
106246  1  0
107247  1  0
110248  1  0
111249  1  6
112250  1  0
112251  1  0
112252  1  0
115253  1  0
116254  1  6
117255  1  0
117256  1  0
118257  1  0
119258  1  0
119259  1  0
119260  1  0
120261  1  0
120262  1  0
120263  1  0
123264  1  0
125265  1  0
125266  1  0
126267  1  0
126268  1  0
127269  1  0
127270  1  0
128271  1  0
129272  1  0
129273  1  0
129274  1  0
132275  1  0
133276  1  1
134277  1  0
134278  1  0
140279  1  0
141280  1  6
142281  1  0
142282  1  0
143283  1  0
146284  1  0
147285  1  1
148286  1  1
149287  1  0
149288  1  0
149289  1  0
150290  1  0
150291  1  0
151292  1  0
151293  1  0
151294  1  0
M  CHG  4  48  -1  78   1 137  -1 154  -1
M  END
