
     RDKit          2D

425433  0  0  0  0  0  0  0  0999 V2000
   13.2792  -10.9347    0.0000 C   0  0  0  0  0  0  0  0  0  0  0  0
   13.7149  -12.3700    0.0000 N   0  0  0  0  0  0  0  0  0  0  0  0
   12.6898  -13.4650    0.0000 C   0  0  0  0  0  0  0  0  0  0  0  0
   11.2289  -13.1247    0.0000 C   0  0  0  0  0  0  0  0  0  0  0  0
   10.2037  -14.2197    0.0000 C   0  0  0  0  0  0  0  0  0  0  0  0
   10.6394  -15.6550    0.0000 C   0  0  0  0  0  0  0  0  0  0  0  0
   12.1003  -15.9954    0.0000 C   0  0  0  0  0  0  0  0  0  0  0  0
   13.1255  -14.9004    0.0000 C   0  0  0  0  0  0  0  0  0  0  0  0
   12.2281  -17.4899    0.0000 C   0  0  0  0  0  0  0  0  0  0  0  0
   10.8462  -18.0733    0.0000 O   0  0  0  0  0  0  0  0  0  0  0  0
    9.8643  -16.9393    0.0000 C   0  0  0  0  0  0  0  0  0  0  0  0
    8.3698  -17.0670    0.0000 O   0  0  0  0  0  0  0  0  0  0  0  0
   12.1989  -18.9896    0.0000 C   0  0  0  0  0  0  0  0  0  0  0  0
   13.4831  -19.7647    0.0000 C   0  0  0  0  0  0  0  0  0  0  0  0
   13.4540  -21.2644    0.0000 C   0  0  0  0  0  0  0  0  0  0  0  0
   12.1406  -21.9891    0.0000 C   0  0  0  0  0  0  0  0  0  0  0  0
   10.8564  -21.2140    0.0000 C   0  0  0  0  0  0  0  0  0  0  0  0
   10.8856  -19.7142    0.0000 C   0  0  0  0  0  0  0  0  0  0  0  0
   12.1115  -23.4888    0.0000 O   0  0  0  0  0  0  0  0  0  0  0  0
   14.7965  -19.0401    0.0000 O   0  0  0  0  0  0  0  0  0  0  0  0
   14.8257  -17.5404    0.0000 C   0  0  0  0  0  0  0  0  0  0  0  0
   13.5414  -16.7653    0.0000 C   0  0  0  0  0  0  0  0  0  0  0  0
   14.1699  -15.6273    0.0000 C   0  0  0  0  0  0  0  0  0  0  0  0
   14.8704  -15.2408    0.0000 C   0  0  0  0  0  0  0  0  0  0  0  0
   15.5553  -15.6542    0.0000 C   0  0  0  0  0  0  0  0  0  0  0  0
   15.5397  -16.4541    0.0000 C   0  0  0  0  0  0  0  0  0  0  0  0
   17.4816  -14.5915    0.0000 O   0  0  0  0  0  0  0  0  0  0  0  0
   11.8183  -10.5944    0.0000 S   0  0  0  0  0  0  0  0  0  0  0  0
   14.3044   -9.8397    0.0000 N   0  0  0  0  0  0  0  0  0  0  0  0
   13.8687   -8.4044    0.0000 C   0  0  0  0  0  0  0  0  0  0  0  0
   14.8939   -7.3094    0.0000 C   0  0  0  0  0  0  0  0  0  0  0  0
   14.4581   -5.8741    0.0000 C   0  0  0  0  0  0  0  0  0  0  0  0
   13.1083   -5.8950    0.0000 O   0  0  0  0  0  0  0  0  0  0  0  0
   15.4833   -4.7791    0.0000 N   0  0  0  0  0  0  0  0  0  0  0  0
   15.0476   -3.3437    0.0000 C   0  0  0  0  0  0  0  0  0  0  0  0
   13.9550   -4.3715    0.0000 C   0  0  0  0  0  0  0  0  0  0  0  0
   12.6877   -5.1739    0.0000 C   0  0  0  0  0  0  0  0  0  0  0  0
   11.2914   -5.7220    0.0000 C   0  0  0  0  0  0  0  0  0  0  0  0
    9.8167   -5.9960    0.0000 C   0  0  0  0  0  0  0  0  0  0  0  0
    8.3167   -5.9859    0.0000 C   0  0  0  0  0  0  0  0  0  0  0  0
    6.8458   -5.6921    0.0000 C   0  0  0  0  0  0  0  0  0  0  0  0
    5.4570   -5.1252    0.0000 C   0  0  0  0  0  0  0  0  0  0  0  0
   16.5271   -3.5907    0.0000 C   0  0  0  0  0  0  0  0  0  0  0  0
   15.9259   -2.1278    0.0000 C   0  0  0  0  0  0  0  0  0  0  0  0
   17.3027   -2.7231    0.0000 O   0  0  0  0  0  0  0  0  0  0  0  0
   16.5582   -0.7676    0.0000 N   0  0  0  0  0  0  0  0  0  0  0  0
   16.9217    0.6877    0.0000 C   0  0  0  0  0  0  0  0  0  0  0  0
   18.2999    1.2799    0.0000 C   0  0  0  0  0  0  0  0  0  0  0  0
   19.5017    0.3824    0.0000 C   0  0  0  0  0  0  0  0  0  0  0  0
   20.8799    0.9745    0.0000 C   0  0  0  0  0  0  0  0  0  0  0  0
   22.0818    0.0770    0.0000 N   0  0  0  0  0  0  0  0  0  0  0  0
   23.4600    0.6691    0.0000 C   0  0  0  0  0  0  0  0  0  0  0  0
   24.6619   -0.2284    0.0000 N   0  0  0  0  0  0  0  0  0  0  0  0
   23.6363    2.1587    0.0000 N   0  0  0  0  0  0  0  0  0  0  0  0
   17.0031    2.1855    0.0000 C   0  0  0  0  0  0  0  0  0  0  0  0
   18.4832    2.4290    0.0000 O   0  0  0  0  0  0  0  0  0  0  0  0
   16.7997    3.6717    0.0000 N   0  0  0  0  0  0  0  0  0  0  0  0
   16.3187    5.0924    0.0000 C   0  0  0  0  0  0  0  0  0  0  0  0
   17.1579    6.3357    0.0000 C   0  0  0  0  0  0  0  0  0  0  0  0
   18.6542    6.2304    0.0000 C   0  0  0  0  0  0  0  0  0  0  0  0
   19.4935    7.4737    0.0000 C   0  0  0  0  0  0  0  0  0  0  0  0
   20.9898    7.3684    0.0000 N   0  0  0  0  0  0  0  0  0  0  0  0
   18.8365    8.8221    0.0000 O   0  0  0  0  0  0  0  0  0  0  0  0
   15.5774    6.3965    0.0000 C   0  0  0  0  0  0  0  0  0  0  0  0
   16.6909    7.4016    0.0000 O   0  0  0  0  0  0  0  0  0  0  0  0
   14.6028    7.5367    0.0000 N   0  0  0  0  0  0  0  0  0  0  0  0
   13.4300    8.4719    0.0000 C   0  0  0  0  0  0  0  0  0  0  0  0
   13.4639    9.9715    0.0000 C   0  0  0  0  0  0  0  0  0  0  0  0
   12.1014    9.1682    0.0000 C   0  0  0  0  0  0  0  0  0  0  0  0
   12.4948   10.6157    0.0000 O   0  0  0  0  0  0  0  0  0  0  0  0
   10.6651    9.6005    0.0000 N   0  0  0  0  0  0  0  0  0  0  0  0
    9.1728    9.7532    0.0000 C   0  0  0  0  0  0  0  0  0  0  0  0
    8.3906   11.0330    0.0000 C   0  0  0  0  0  0  0  0  0  0  0  0
    9.1079   12.3504    0.0000 C   0  0  0  0  0  0  0  0  0  0  0  0
    8.3257   13.6303    0.0000 C   0  0  0  0  0  0  0  0  0  0  0  0
    9.0430   14.9477    0.0000 N   0  0  0  0  0  0  0  0  0  0  0  0
    8.2608   16.2276    0.0000 C   0  0  0  0  0  0  0  0  0  0  0  0
    8.9781   17.5450    0.0000 N   0  0  0  0  0  0  0  0  0  0  0  0
    6.7612   16.1901    0.0000 N   0  0  0  0  0  0  0  0  0  0  0  0
    7.6787    9.6206    0.0000 C   0  0  0  0  0  0  0  0  0  0  0  0
    7.2270   11.0510    0.0000 O   0  0  0  0  0  0  0  0  0  0  0  0
    6.2367    9.2078    0.0000 N   0  0  0  0  0  0  0  0  0  0  0  0
    4.8988    8.5294    0.0000 C   0  0  0  0  0  0  0  0  0  0  0  0
    3.5488    9.1832    0.0000 C   0  0  0  0  0  0  0  0  0  0  0  0
    3.4400   10.6793    0.0000 C   0  0  0  0  0  0  0  0  0  0  0  0
    2.0900   11.3331    0.0000 C   0  0  0  0  0  0  0  0  0  0  0  0
    1.9812   12.8291    0.0000 N   0  0  0  0  0  0  0  0  0  0  0  0
    0.6312   13.4830    0.0000 C   0  0  0  0  0  0  0  0  0  0  0  0
    0.5224   14.9790    0.0000 N   0  0  0  0  0  0  0  0  0  0  0  0
   -0.6100   12.6407    0.0000 N   0  0  0  0  0  0  0  0  0  0  0  0
    3.7135    7.6102    0.0000 C   0  0  0  0  0  0  0  0  0  0  0  0
    2.5602    8.5693    0.0000 O   0  0  0  0  0  0  0  0  0  0  0  0
    2.7236    6.4832    0.0000 N   0  0  0  0  0  0  0  0  0  0  0  0
    1.9648    5.1892    0.0000 C   0  0  0  0  0  0  0  0  0  0  0  0
    0.4757    5.0094    0.0000 C   0  0  0  0  0  0  0  0  0  0  0  0
   -0.4247    6.2091    0.0000 C   0  0  0  0  0  0  0  0  0  0  0  0
   -1.9247    6.2121    0.0000 N   0  0  0  0  0  0  0  0  0  0  0  0
    0.1641    7.5887    0.0000 O   0  0  0  0  0  0  0  0  0  0  0  0
    1.4647    3.7751    0.0000 C   0  0  0  0  0  0  0  0  0  0  0  0
    0.0645    4.3132    0.0000 O   0  0  0  0  0  0  0  0  0  0  0  0
    1.2412    2.2918    0.0000 N   0  0  0  0  0  0  0  0  0  0  0  0
    1.3025    0.7931    0.0000 C   0  0  0  0  0  0  0  0  0  0  0  0
    1.6463   -0.6670    0.0000 C   0  0  0  0  0  0  0  0  0  0  0  0
    2.2602   -2.0356    0.0000 C   0  0  0  0  0  0  0  0  0  0  0  0
    3.1220   -3.2633    0.0000 C   0  0  0  0  0  0  0  0  0  0  0  0
    4.2006   -4.3057    0.0000 C   0  0  0  0  0  0  0  0  0  0  0  0
    0.6648   -0.6677    0.0000 C   0  0  0  0  0  0  0  0  0  0  0  0
    0.4611   -2.0193    0.0000 C   0  0  0  0  0  0  0  0  0  0  0  0
    0.0054   -3.3080    0.0000 C   0  0  0  0  0  0  0  0  0  0  0  0
   -0.6861   -4.4872    0.0000 C   0  0  0  0  0  0  0  0  0  0  0  0
    0.2956    2.0286    0.0000 C   0  0  0  0  0  0  0  0  0  0  0  0
    2.3795    2.7342    0.0000 O   0  0  0  0  0  0  0  0  0  0  0  0
   -0.2638    3.2758    0.0000 N   0  0  0  0  0  0  0  0  0  0  0  0
   -1.0492    4.3946    0.0000 C   0  0  0  0  0  0  0  0  0  0  0  0
   -0.0620    6.2788    0.0000 C   0  0  0  0  0  0  0  0  0  0  0  0
   -1.0723    7.3875    0.0000 C   0  0  0  0  0  0  0  0  0  0  0  0
   -0.6173    8.8168    0.0000 C   0  0  0  0  0  0  0  0  0  0  0  0
   -1.6276    9.9255    0.0000 N   0  0  0  0  0  0  0  0  0  0  0  0
   -1.1726   11.3549    0.0000 C   0  0  0  0  0  0  0  0  0  0  0  0
   -2.0402   12.5785    0.0000 N   0  0  0  0  0  0  0  0  0  0  0  0
    0.2427   11.8517    0.0000 N   0  0  0  0  0  0  0  0  0  0  0  0
   -2.0321    5.3446    0.0000 C   0  0  0  0  0  0  0  0  0  0  0  0
   -0.9721    7.2561    0.0000 O   0  0  0  0  0  0  0  0  0  0  0  0
   -3.1770    6.0913    0.0000 N   0  0  0  0  0  0  0  0  0  0  0  0
   -4.4425    6.6079    0.0000 C   0  0  0  0  0  0  0  0  0  0  0  0
   -4.6308    8.7266    0.0000 C   0  0  0  0  0  0  0  0  0  0  0  0
   -3.5714    9.7885    0.0000 C   0  0  0  0  0  0  0  0  0  0  0  0
   -3.9613   11.2370    0.0000 C   0  0  0  0  0  0  0  0  0  0  0  0
   -2.9019   12.2989    0.0000 N   0  0  0  0  0  0  0  0  0  0  0  0
   -3.2919   13.7473    0.0000 C   0  0  0  0  0  0  0  0  0  0  0  0
   -2.2325   14.8092    0.0000 N   0  0  0  0  0  0  0  0  0  0  0  0
   -4.7412   14.1338    0.0000 N   0  0  0  0  0  0  0  0  0  0  0  0
   -5.7830    6.8756    0.0000 C   0  0  0  0  0  0  0  0  0  0  0  0
   -5.7421    9.0717    0.0000 O   0  0  0  0  0  0  0  0  0  0  0  0
   -7.1499    6.8848    0.0000 N   0  0  0  0  0  0  0  0  0  0  0  0
   -8.4938    6.6352    0.0000 C   0  0  0  0  0  0  0  0  0  0  0  0
   -9.7976    8.3158    0.0000 C   0  0  0  0  0  0  0  0  0  0  0  0
   -9.4805    9.7819    0.0000 C   0  0  0  0  0  0  0  0  0  0  0  0
  -10.5916   10.7896    0.0000 C   0  0  0  0  0  0  0  0  0  0  0  0
  -10.2745   12.2557    0.0000 N   0  0  0  0  0  0  0  0  0  0  0  0
  -11.3857   13.2634    0.0000 C   0  0  0  0  0  0  0  0  0  0  0  0
  -11.0686   14.7295    0.0000 N   0  0  0  0  0  0  0  0  0  0  0  0
  -12.8139   12.8049    0.0000 N   0  0  0  0  0  0  0  0  0  0  0  0
   -9.7662    6.1357    0.0000 C   0  0  0  0  0  0  0  0  0  0  0  0
  -10.9191    8.0053    0.0000 O   0  0  0  0  0  0  0  0  0  0  0  0
  -10.9211    5.4045    0.0000 N   0  0  0  0  0  0  0  0  0  0  0  0
  -11.9167    4.4679    0.0000 C   0  0  0  0  0  0  0  0  0  0  0  0
  -13.9222    5.1768    0.0000 C   0  0  0  0  0  0  0  0  0  0  0  0
  -14.4480    6.5816    0.0000 C   0  0  0  0  0  0  0  0  0  0  0  0
  -13.6206    7.8328    0.0000 C   0  0  0  0  0  0  0  0  0  0  0  0
  -14.5549    9.0063    0.0000 N   0  0  0  0  0  0  0  0  0  0  0  0
  -15.9597    8.4805    0.0000 C   0  0  0  0  0  0  0  0  0  0  0  0
  -17.2905    9.1726    0.0000 C   0  0  0  0  0  0  0  0  0  0  0  0
  -18.5552    8.3661    0.0000 C   0  0  0  0  0  0  0  0  0  0  0  0
  -18.4892    6.8676    0.0000 C   0  0  0  0  0  0  0  0  0  0  0  0
  -17.1584    6.1755    0.0000 C   0  0  0  0  0  0  0  0  0  0  0  0
  -15.8936    6.9819    0.0000 C   0  0  0  0  0  0  0  0  0  0  0  0
  -12.7171    3.3598    0.0000 C   0  0  0  0  0  0  0  0  0  0  0  0
  -14.6977    4.3092    0.0000 O   0  0  0  0  0  0  0  0  0  0  0  0
  -13.2933    2.1203    0.0000 N   0  0  0  0  0  0  0  0  0  0  0  0
  -13.6245    0.7941    0.0000 C   0  0  0  0  0  0  0  0  0  0  0  0
  -15.6949    0.3063    0.0000 C   0  0  0  0  0  0  0  0  0  0  0  0
  -16.8968    1.2037    0.0000 C   0  0  0  0  0  0  0  0  0  0  0  0
  -18.2750    0.6116    0.0000 C   0  0  0  0  0  0  0  0  0  0  0  0
  -19.4768    1.5091    0.0000 N   0  0  0  0  0  0  0  0  0  0  0  0
  -20.8550    0.9170    0.0000 C   0  0  0  0  0  0  0  0  0  0  0  0
  -22.0569    1.8145    0.0000 N   0  0  0  0  0  0  0  0  0  0  0  0
  -21.0313   -0.5726    0.0000 N   0  0  0  0  0  0  0  0  0  0  0  0
  -13.6988   -0.5708    0.0000 C   0  0  0  0  0  0  0  0  0  0  0  0
  -15.8783   -0.8429    0.0000 O   0  0  0  0  0  0  0  0  0  0  0  0
  -13.5134   -1.9251    0.0000 N   0  0  0  0  0  0  0  0  0  0  0  0
  -13.0750   -3.2198    0.0000 C   0  0  0  0  0  0  0  0  0  0  0  0
  -14.5530   -4.7495    0.0000 C   0  0  0  0  0  0  0  0  0  0  0  0
  -16.0493   -4.6443    0.0000 C   0  0  0  0  0  0  0  0  0  0  0  0
  -16.8886   -5.8875    0.0000 C   0  0  0  0  0  0  0  0  0  0  0  0
  -18.3849   -5.7823    0.0000 O   0  0  0  0  0  0  0  0  0  0  0  0
  -16.2315   -7.2360    0.0000 O   0  0  0  0  0  0  0  0  0  0  0  0
  -12.3995   -4.4082    0.0000 C   0  0  0  0  0  0  0  0  0  0  0  0
  -14.0860   -5.8154    0.0000 O   0  0  0  0  0  0  0  0  0  0  0  0
  -11.5114   -5.4473    0.0000 N   0  0  0  0  0  0  0  0  0  0  0  0
  -10.4426   -6.2995    0.0000 C   0  0  0  0  0  0  0  0  0  0  0  0
   -9.2319   -6.9340    0.0000 C   0  0  0  0  0  0  0  0  0  0  0  0
   -7.9230   -7.3279    0.0000 C   0  0  0  0  0  0  0  0  0  0  0  0
   -6.5632   -7.4670    0.0000 C   0  0  0  0  0  0  0  0  0  0  0  0
   -5.2016   -7.3463    0.0000 C   0  0  0  0  0  0  0  0  0  0  0  0
   -3.8875   -6.9700    0.0000 C   0  0  0  0  0  0  0  0  0  0  0  0
   -2.6683   -6.3519    0.0000 C   0  0  0  0  0  0  0  0  0  0  0  0
   -1.5882   -5.5142    0.0000 C   0  0  0  0  0  0  0  0  0  0  0  0
  -12.1838   -7.5213    0.0000 C   0  0  0  0  0  0  0  0  0  0  0  0
  -10.8590   -8.3854    0.0000 C   0  0  0  0  0  0  0  0  0  0  0  0
   -9.8038   -9.4516    0.0000 O   0  0  0  0  0  0  0  0  0  0  0  0
  -12.1746   -9.1058    0.0000 N   0  0  0  0  0  0  0  0  0  0  0  0
  -12.2085  -10.6055    0.0000 C   0  0  0  0  0  0  0  0  0  0  0  0
  -11.7275  -12.0262    0.0000 C   0  0  0  0  0  0  0  0  0  0  0  0
  -12.7174  -13.1532    0.0000 C   0  0  0  0  0  0  0  0  0  0  0  0
  -12.2364  -14.5740    0.0000 C   0  0  0  0  0  0  0  0  0  0  0  0
  -13.0815  -15.8132    0.0000 N   0  0  0  0  0  0  0  0  0  0  0  0
  -10.7654  -14.8678    0.0000 O   0  0  0  0  0  0  0  0  0  0  0  0
  -13.5242  -11.3259    0.0000 C   0  0  0  0  0  0  0  0  0  0  0  0
  -14.8059  -10.5467    0.0000 O   0  0  0  0  0  0  0  0  0  0  0  0
  -13.5581  -12.8255    0.0000 N   0  0  0  0  0  0  0  0  0  0  0  0
  -14.8738  -13.5459    0.0000 C   0  0  0  0  0  0  0  0  0  0  0  0
  -16.3565  -13.7730    0.0000 C   0  0  0  0  0  0  0  0  0  0  0  0
  -17.2944  -12.6024    0.0000 C   0  0  0  0  0  0  0  0  0  0  0  0
  -18.7772  -12.8294    0.0000 C   0  0  0  0  0  0  0  0  0  0  0  0
  -19.7151  -11.6588    0.0000 N   0  0  0  0  0  0  0  0  0  0  0  0
  -21.1978  -11.8858    0.0000 C   0  0  0  0  0  0  0  0  0  0  0  0
  -22.1358  -10.7153    0.0000 N   0  0  0  0  0  0  0  0  0  0  0  0
  -21.7426  -13.2834    0.0000 N   0  0  0  0  0  0  0  0  0  0  0  0
  -14.9077  -15.0456    0.0000 C   0  0  0  0  0  0  0  0  0  0  0  0
  -16.1257  -15.9210    0.0000 O   0  0  0  0  0  0  0  0  0  0  0  0
  -13.7305  -15.9752    0.0000 O   0  0  0  0  0  0  0  0  0  0  0  0
   15.2064  -12.5297    0.0000 H   0  0  0  0  0  0  0  0  0  0  0  0
   10.7932  -11.6894    0.0000 H   0  0  0  0  0  0  0  0  0  0  0  0
    8.7428  -13.8794    0.0000 H   0  0  0  0  0  0  0  0  0  0  0  0
   14.6253  -14.8771    0.0000 H   0  0  0  0  0  0  0  0  0  0  0  0
   14.7382  -22.0396    0.0000 H   0  0  0  0  0  0  0  0  0  0  0  0
    9.5430  -21.9386    0.0000 H   0  0  0  0  0  0  0  0  0  0  0  0
    9.6013  -18.9391    0.0000 H   0  0  0  0  0  0  0  0  0  0  0  0
   10.7981  -24.2134    0.0000 H   0  0  0  0  0  0  0  0  0  0  0  0
   12.2864  -14.4905    0.0000 H   0  0  0  0  0  0  0  0  0  0  0  0
   15.0957  -13.0560    0.0000 H   0  0  0  0  0  0  0  0  0  0  0  0
   17.4232  -17.5909    0.0000 H   0  0  0  0  0  0  0  0  0  0  0  0
   18.7658  -15.3666    0.0000 H   0  0  0  0  0  0  0  0  0  0  0  0
   15.7653  -10.1800    0.0000 H   0  0  0  0  0  0  0  0  0  0  0  0
   12.5308   -9.0827    0.0000 H   0  0  0  0  0  0  0  0  0  0  0  0
   12.9683   -7.2046    0.0000 H   0  0  0  0  0  0  0  0  0  0  0  0
   15.7942   -8.5091    0.0000 H   0  0  0  0  0  0  0  0  0  0  0  0
   16.2317   -6.6311    0.0000 H   0  0  0  0  0  0  0  0  0  0  0  0
   16.8918   -5.2949    0.0000 H   0  0  0  0  0  0  0  0  0  0  0  0
   15.1929   -5.2187    0.0000 H   0  0  0  0  0  0  0  0  0  0  0  0
   13.9282   -5.8713    0.0000 H   0  0  0  0  0  0  0  0  0  0  0  0
   13.6050   -6.3608    0.0000 H   0  0  0  0  0  0  0  0  0  0  0  0
   12.5588   -6.6684    0.0000 H   0  0  0  0  0  0  0  0  0  0  0  0
   12.4026   -6.7297    0.0000 H   0  0  0  0  0  0  0  0  0  0  0  0
   11.0609   -7.2042    0.0000 H   0  0  0  0  0  0  0  0  0  0  0  0
   10.5641   -7.2965    0.0000 H   0  0  0  0  0  0  0  0  0  0  0  0
    9.3098   -7.4078    0.0000 H   0  0  0  0  0  0  0  0  0  0  0  0
    8.8045   -7.4044    0.0000 H   0  0  0  0  0  0  0  0  0  0  0  0
    7.5518   -7.2762    0.0000 H   0  0  0  0  0  0  0  0  0  0  0  0
    7.0562   -7.1772    0.0000 H   0  0  0  0  0  0  0  0  0  0  0  0
    5.7211   -6.6847    0.0000 H   0  0  0  0  0  0  0  0  0  0  0  0
    4.7607   -6.4538    0.0000 H   0  0  0  0  0  0  0  0  0  0  0  0
   17.2203   -4.9209    0.0000 H   0  0  0  0  0  0  0  0  0  0  0  0
   18.0243   -3.4986    0.0000 H   0  0  0  0  0  0  0  0  0  0  0  0
   16.8768   -2.1320    0.0000 H   0  0  0  0  0  0  0  0  0  0  0  0
   17.9009   -1.4364    0.0000 H   0  0  0  0  0  0  0  0  0  0  0  0
   17.9372   -0.4162    0.0000 H   0  0  0  0  0  0  0  0  0  0  0  0
   19.3924    2.3076    0.0000 H   0  0  0  0  0  0  0  0  0  0  0  0
   17.8054    2.6960    0.0000 H   0  0  0  0  0  0  0  0  0  0  0  0
   20.3242   -0.8721    0.0000 H   0  0  0  0  0  0  0  0  0  0  0  0
   18.6903   -0.8792    0.0000 H   0  0  0  0  0  0  0  0  0  0  0  0
   21.9725    2.0023    0.0000 H   0  0  0  0  0  0  0  0  0  0  0  0
   20.2165    2.3198    0.0000 H   0  0  0  0  0  0  0  0  0  0  0  0
   21.9055   -1.4126    0.0000 H   0  0  0  0  0  0  0  0  0  0  0  0
   26.0401    0.3638    0.0000 H   0  0  0  0  0  0  0  0  0  0  0  0
   24.4856   -1.7180    0.0000 H   0  0  0  0  0  0  0  0  0  0  0  0
   25.0145    2.7508    0.0000 H   0  0  0  0  0  0  0  0  0  0  0  0
   22.4344    3.0562    0.0000 H   0  0  0  0  0  0  0  0  0  0  0  0
   18.2908    3.8349    0.0000 H   0  0  0  0  0  0  0  0  0  0  0  0
   17.7698    4.7128    0.0000 H   0  0  0  0  0  0  0  0  0  0  0  0
   17.6961    7.7358    0.0000 H   0  0  0  0  0  0  0  0  0  0  0  0
   15.9763    7.2597    0.0000 H   0  0  0  0  0  0  0  0  0  0  0  0
   20.0243    5.6198    0.0000 H   0  0  0  0  0  0  0  0  0  0  0  0
   18.6537    4.7304    0.0000 H   0  0  0  0  0  0  0  0  0  0  0  0
   21.8291    8.6117    0.0000 H   0  0  0  0  0  0  0  0  0  0  0  0
   21.6468    6.0200    0.0000 H   0  0  0  0  0  0  0  0  0  0  0  0
   15.6452    8.6153    0.0000 H   0  0  0  0  0  0  0  0  0  0  0  0
   14.7887    9.1074    0.0000 H   0  0  0  0  0  0  0  0  0  0  0  0
   14.7796   10.6920    0.0000 H   0  0  0  0  0  0  0  0  0  0  0  0
   13.1597   11.4403    0.0000 H   0  0  0  0  0  0  0  0  0  0  0  0
   11.9703   10.1100    0.0000 H   0  0  0  0  0  0  0  0  0  0  0  0
   11.1360   11.0247    0.0000 H   0  0  0  0  0  0  0  0  0  0  0  0
   10.1210   10.9155    0.0000 H   0  0  0  0  0  0  0  0  0  0  0  0
    7.2178   11.9682    0.0000 H   0  0  0  0  0  0  0  0  0  0  0  0
    7.0592   10.3421    0.0000 H   0  0  0  0  0  0  0  0  0  0  0  0
   10.2325   13.3430    0.0000 H   0  0  0  0  0  0  0  0  0  0  0  0
   10.4722   11.7268    0.0000 H   0  0  0  0  0  0  0  0  0  0  0  0
    7.1529   14.5655    0.0000 H   0  0  0  0  0  0  0  0  0  0  0  0
    7.0885   12.7822    0.0000 H   0  0  0  0  0  0  0  0  0  0  0  0
   10.5425   14.9852    0.0000 H   0  0  0  0  0  0  0  0  0  0  0  0
    8.1959   18.8248    0.0000 H   0  0  0  0  0  0  0  0  0  0  0  0
   10.4776   17.5824    0.0000 H   0  0  0  0  0  0  0  0  0  0  0  0
    5.9790   17.4700    0.0000 H   0  0  0  0  0  0  0  0  0  0  0  0
    6.0439   14.8727    0.0000 H   0  0  0  0  0  0  0  0  0  0  0  0
    5.8629   10.6604    0.0000 H   0  0  0  0  0  0  0  0  0  0  0  0
    5.0680   10.0198    0.0000 H   0  0  0  0  0  0  0  0  0  0  0  0
    2.0566    9.3359    0.0000 H   0  0  0  0  0  0  0  0  0  0  0  0
    2.8023    7.8822    0.0000 H   0  0  0  0  0  0  0  0  0  0  0  0
    3.8494   12.1223    0.0000 H   0  0  0  0  0  0  0  0  0  0  0  0
    4.9248   10.8922    0.0000 H   0  0  0  0  0  0  0  0  0  0  0  0
    0.6275   11.6665    0.0000 H   0  0  0  0  0  0  0  0  0  0  0  0
    1.6805    9.8901    0.0000 H   0  0  0  0  0  0  0  0  0  0  0  0
    3.2224   13.6714    0.0000 H   0  0  0  0  0  0  0  0  0  0  0  0
   -0.8276   15.6328    0.0000 H   0  0  0  0  0  0  0  0  0  0  0  0
    1.7636   15.8212    0.0000 H   0  0  0  0  0  0  0  0  0  0  0  0
   -1.7617   13.6018    0.0000 H   0  0  0  0  0  0  0  0  0  0  0  0
   -0.1425   11.2154    0.0000 H   0  0  0  0  0  0  0  0  0  0  0  0
    1.6237    7.5032    0.0000 H   0  0  0  0  0  0  0  0  0  0  0  0
    1.3014    6.5346    0.0000 H   0  0  0  0  0  0  0  0  0  0  0  0
   -1.0164    4.8557    0.0000 H   0  0  0  0  0  0  0  0  0  0  0  0
    0.1864    3.5375    0.0000 H   0  0  0  0  0  0  0  0  0  0  0  0
   -2.5856    7.4223    0.0000 H   0  0  0  0  0  0  0  0  0  0  0  0
   -2.5027    4.6497    0.0000 H   0  0  0  0  0  0  0  0  0  0  0  0
   -0.2566    2.3733    0.0000 H   0  0  0  0  0  0  0  0  0  0  0  0
    0.8409   -1.9324    0.0000 H   0  0  0  0  0  0  0  0  0  0  0  0
    0.1854   -0.3267    0.0000 H   0  0  0  0  0  0  0  0  0  0  0  0
    1.7088   -3.4306    0.0000 H   0  0  0  0  0  0  0  0  0  0  0  0
    0.8402   -2.5190    0.0000 H   0  0  0  0  0  0  0  0  0  0  0  0
    2.6670   -4.6926    0.0000 H   0  0  0  0  0  0  0  0  0  0  0  0
    1.8192   -4.0067    0.0000 H   0  0  0  0  0  0  0  0  0  0  0  0
    3.2654   -5.4785    0.0000 H   0  0  0  0  0  0  0  0  0  0  0  0
    2.6794    0.0148    0.0000 H   0  0  0  0  0  0  0  0  0  0  0  0
    2.4796   -1.7081    0.0000 H   0  0  0  0  0  0  0  0  0  0  0  0
    2.6379   -2.2729    0.0000 H   0  0  0  0  0  0  0  0  0  0  0  0
    2.0463   -3.3844    0.0000 H   0  0  0  0  0  0  0  0  0  0  0  0
    2.0948   -3.9690    0.0000 H   0  0  0  0  0  0  0  0  0  0  0  0
    1.4626   -4.8575    0.0000 H   0  0  0  0  0  0  0  0  0  0  0  0
    1.0973   -5.7754    0.0000 H   0  0  0  0  0  0  0  0  0  0  0  0
    1.4307    4.6565    0.0000 H   0  0  0  0  0  0  0  0  0  0  0  0
    0.9269    5.2555    0.0000 H   0  0  0  0  0  0  0  0  0  0  0  0
    0.9923    7.3457    0.0000 H   0  0  0  0  0  0  0  0  0  0  0  0
    1.3956    5.9246    0.0000 H   0  0  0  0  0  0  0  0  0  0  0  0
   -2.3061    8.2406    0.0000 H   0  0  0  0  0  0  0  0  0  0  0  0
   -2.3535    6.6074    0.0000 H   0  0  0  0  0  0  0  0  0  0  0  0
    0.2991   10.0043    0.0000 H   0  0  0  0  0  0  0  0  0  0  0  0
    0.8403    8.4627    0.0000 H   0  0  0  0  0  0  0  0  0  0  0  0
   -3.1270    9.9690    0.0000 H   0  0  0  0  0  0  0  0  0  0  0  0
   -1.8904   13.9212    0.0000 H   0  0  0  0  0  0  0  0  0  0  0  0
   -3.7058   12.5450    0.0000 H   0  0  0  0  0  0  0  0  0  0  0  0
    0.4295   13.1897    0.0000 H   0  0  0  0  0  0  0  0  0  0  0  0
    1.1385   10.4471    0.0000 H   0  0  0  0  0  0  0  0  0  0  0  0
   -2.1557    8.0399    0.0000 H   0  0  0  0  0  0  0  0  0  0  0  0
   -3.1162    8.2708    0.0000 H   0  0  0  0  0  0  0  0  0  0  0  0
   -5.4926    9.9543    0.0000 H   0  0  0  0  0  0  0  0  0  0  0  0
   -6.1029    8.4387    0.0000 H   0  0  0  0  0  0  0  0  0  0  0  0
   -2.4068   10.7340    0.0000 H   0  0  0  0  0  0  0  0  0  0  0  0
   -2.5663    8.6750    0.0000 H   0  0  0  0  0  0  0  0  0  0  0  0
   -4.8231   12.4647    0.0000 H   0  0  0  0  0  0  0  0  0  0  0  0
   -5.3874   10.7718    0.0000 H   0  0  0  0  0  0  0  0  0  0  0  0
   -1.4021   12.2746    0.0000 H   0  0  0  0  0  0  0  0  0  0  0  0
   -2.6224   16.2577    0.0000 H   0  0  0  0  0  0  0  0  0  0  0  0
   -0.7831   14.4227    0.0000 H   0  0  0  0  0  0  0  0  0  0  0  0
   -5.1312   15.5822    0.0000 H   0  0  0  0  0  0  0  0  0  0  0  0
   -5.8006   13.0719    0.0000 H   0  0  0  0  0  0  0  0  0  0  0  0
   -7.1611    9.0812    0.0000 H   0  0  0  0  0  0  0  0  0  0  0  0
   -8.1042    8.6905    0.0000 H   0  0  0  0  0  0  0  0  0  0  0  0
  -11.1864    8.8827    0.0000 H   0  0  0  0  0  0  0  0  0  0  0  0
  -10.8804    7.2778    0.0000 H   0  0  0  0  0  0  0  0  0  0  0  0
   -8.6811   11.0512    0.0000 H   0  0  0  0  0  0  0  0  0  0  0  0
   -7.9959    9.5680    0.0000 H   0  0  0  0  0  0  0  0  0  0  0  0
  -11.9804   11.3565    0.0000 H   0  0  0  0  0  0  0  0  0  0  0  0
  -11.5398    9.6273    0.0000 H   0  0  0  0  0  0  0  0  0  0  0  0
   -8.8463   12.7141    0.0000 H   0  0  0  0  0  0  0  0  0  0  0  0
  -12.1797   15.7371    0.0000 H   0  0  0  0  0  0  0  0  0  0  0  0
   -9.6403   15.1879    0.0000 H   0  0  0  0  0  0  0  0  0  0  0  0
  -13.9250   13.8126    0.0000 H   0  0  0  0  0  0  0  0  0  0  0  0
  -13.1310   11.3388    0.0000 H   0  0  0  0  0  0  0  0  0  0  0  0
  -12.1180    7.2462    0.0000 H   0  0  0  0  0  0  0  0  0  0  0  0
  -12.8784    6.3652    0.0000 H   0  0  0  0  0  0  0  0  0  0  0  0
  -15.4193    5.0847    0.0000 H   0  0  0  0  0  0  0  0  0  0  0  0
  -14.2718    3.7182    0.0000 H   0  0  0  0  0  0  0  0  0  0  0  0
  -12.1413    8.0810    0.0000 H   0  0  0  0  0  0  0  0  0  0  0  0
  -14.1546   10.4519    0.0000 H   0  0  0  0  0  0  0  0  0  0  0  0
  -17.3565   10.6711    0.0000 H   0  0  0  0  0  0  0  0  0  0  0  0
  -19.8860    9.0582    0.0000 H   0  0  0  0  0  0  0  0  0  0  0  0
  -19.7540    6.0611    0.0000 H   0  0  0  0  0  0  0  0  0  0  0  0
  -17.0924    4.6769    0.0000 H   0  0  0  0  0  0  0  0  0  0  0  0
  -15.2959    3.0225    0.0000 H   0  0  0  0  0  0  0  0  0  0  0  0
  -15.3323    2.0023    0.0000 H   0  0  0  0  0  0  0  0  0  0  0  0
  -16.7875   -0.7215    0.0000 H   0  0  0  0  0  0  0  0  0  0  0  0
  -15.2004   -1.1099    0.0000 H   0  0  0  0  0  0  0  0  0  0  0  0
  -17.7192    2.4582    0.0000 H   0  0  0  0  0  0  0  0  0  0  0  0
  -16.0854    2.4654    0.0000 H   0  0  0  0  0  0  0  0  0  0  0  0
  -19.3675   -0.4161    0.0000 H   0  0  0  0  0  0  0  0  0  0  0  0
  -17.6116   -0.7337    0.0000 H   0  0  0  0  0  0  0  0  0  0  0  0
  -19.3005    2.9987    0.0000 H   0  0  0  0  0  0  0  0  0  0  0  0
  -23.4351    1.2224    0.0000 H   0  0  0  0  0  0  0  0  0  0  0  0
  -21.8806    3.3041    0.0000 H   0  0  0  0  0  0  0  0  0  0  0  0
  -22.4095   -1.1647    0.0000 H   0  0  0  0  0  0  0  0  0  0  0  0
  -19.8295   -1.4701    0.0000 H   0  0  0  0  0  0  0  0  0  0  0  0
  -15.6858   -2.2488    0.0000 H   0  0  0  0  0  0  0  0  0  0  0  0
  -15.1649   -3.1267    0.0000 H   0  0  0  0  0  0  0  0  0  0  0  0
  -15.0911   -6.1497    0.0000 H   0  0  0  0  0  0  0  0  0  0  0  0
  -13.3714   -5.6736    0.0000 H   0  0  0  0  0  0  0  0  0  0  0  0
  -17.4194   -4.0337    0.0000 H   0  0  0  0  0  0  0  0  0  0  0  0
  -16.0488   -3.1443    0.0000 H   0  0  0  0  0  0  0  0  0  0  0  0
  -13.1640   -6.8941    0.0000 H   0  0  0  0  0  0  0  0  0  0  0  0
   -9.2460   -9.0610    0.0000 H   0  0  0  0  0  0  0  0  0  0  0  0
  -10.4610   -8.7308    0.0000 H   0  0  0  0  0  0  0  0  0  0  0  0
   -7.7094   -9.4728    0.0000 H   0  0  0  0  0  0  0  0  0  0  0  0
   -8.7898   -9.3249    0.0000 H   0  0  0  0  0  0  0  0  0  0  0  0
   -5.9475   -9.5327    0.0000 H   0  0  0  0  0  0  0  0  0  0  0  0
   -7.2066   -9.5242    0.0000 H   0  0  0  0  0  0  0  0  0  0  0  0
   -4.2061   -9.2581    0.0000 H   0  0  0  0  0  0  0  0  0  0  0  0
   -5.4441   -9.4881    0.0000 H   0  0  0  0  0  0  0  0  0  0  0  0
   -2.5482   -8.6589    0.0000 H   0  0  0  0  0  0  0  0  0  0  0  0
   -3.7203   -9.1190    0.0000 H   0  0  0  0  0  0  0  0  0  0  0  0
   -0.9438   -7.5971    0.0000 H   0  0  0  0  0  0  0  0  0  0  0  0
   -2.0974   -8.4304    0.0000 H   0  0  0  0  0  0  0  0  0  0  0  0
   -0.0808   -7.1166    0.0000 H   0  0  0  0  0  0  0  0  0  0  0  0
  -12.6705   -8.9402    0.0000 H   0  0  0  0  0  0  0  0  0  0  0  0
  -13.6779   -7.6538    0.0000 H   0  0  0  0  0  0  0  0  0  0  0  0
  -12.9126   -6.2103    0.0000 H   0  0  0  0  0  0  0  0  0  0  0  0
  -13.5418   -8.4887    0.0000 H   0  0  0  0  0  0  0  0  0  0  0  0
  -10.7258  -10.3784    0.0000 H   0  0  0  0  0  0  0  0  0  0  0  0
  -10.7895  -13.1968    0.0000 H   0  0  0  0  0  0  0  0  0  0  0  0
  -10.4118  -11.3058    0.0000 H   0  0  0  0  0  0  0  0  0  0  0  0
  -14.0331  -13.8736    0.0000 H   0  0  0  0  0  0  0  0  0  0  0  0
  -14.0952  -12.5601    0.0000 H   0  0  0  0  0  0  0  0  0  0  0  0
  -12.7453  -17.1217    0.0000 H   0  0  0  0  0  0  0  0  0  0  0  0
  -14.7475  -15.8102    0.0000 H   0  0  0  0  0  0  0  0  0  0  0  0
  -12.5030  -13.8917    0.0000 H   0  0  0  0  0  0  0  0  0  0  0  0
  -15.1780  -12.0771    0.0000 H   0  0  0  0  0  0  0  0  0  0  0  0
  -17.5745  -14.6484    0.0000 H   0  0  0  0  0  0  0  0  0  0  0  0
  -16.0522  -15.2418    0.0000 H   0  0  0  0  0  0  0  0  0  0  0  0
  -17.7755  -11.1816    0.0000 H   0  0  0  0  0  0  0  0  0  0  0  0
  -16.0764  -11.7269    0.0000 H   0  0  0  0  0  0  0  0  0  0  0  0
  -20.0928  -13.5498    0.0000 H   0  0  0  0  0  0  0  0  0  0  0  0
  -18.4729  -14.2982    0.0000 H   0  0  0  0  0  0  0  0  0  0  0  0
  -19.1704  -10.2612    0.0000 H   0  0  0  0  0  0  0  0  0  0  0  0
  -23.6185  -10.9423    0.0000 H   0  0  0  0  0  0  0  0  0  0  0  0
  -21.5910   -9.3177    0.0000 H   0  0  0  0  0  0  0  0  0  0  0  0
  -23.2253  -13.5104    0.0000 H   0  0  0  0  0  0  0  0  0  0  0  0
  -20.8047  -14.4540    0.0000 H   0  0  0  0  0  0  0  0  0  0  0  0
  1  2  1  0
  2  3  1  0
  3  4  2  0
  4  5  1  0
  5  6  2  0
  6  7  1  0
  7  8  2  0
  7  9  1  0
  9 10  1  0
 10 11  1  0
 11 12  2  0
  9 13  1  0
 13 14  1  0
 14 15  2  0
 15 16  1  0
 16 17  2  0
 17 18  1  0
 16 19  1  0
 14 20  1  0
 20 21  1  0
 21 22  2  0
 22 23  1  0
 23 24  2  0
 24 25  1  0
 25 26  2  0
 25 27  1  0
  1 28  2  0
  1 29  1  0
 29 30  1  0
 30 31  1  0
 31 32  1  0
 32 33  2  0
 32 34  1  0
 35 34  1  6
 35 36  1  0
 36 37  1  0
 37 38  1  0
 38 39  1  0
 39 40  1  0
 40 41  1  0
 41 42  1  0
 35 43  1  0
 35 44  1  0
 44 45  2  0
 44 46  1  0
 46 47  1  0
 47 48  1  0
 48 49  1  0
 49 50  1  0
 50 51  1  0
 51 52  1  0
 52 53  2  3
 52 54  1  0
 47 55  1  0
 55 56  2  0
 55 57  1  0
 57 58  1  0
 58 59  1  0
 59 60  1  0
 60 61  1  0
 61 62  1  0
 61 63  2  0
 58 64  1  0
 64 65  2  0
 64 66  1  0
 66 67  1  0
 67 68  1  0
 67 69  1  0
 69 70  2  0
 69 71  1  0
 71 72  1  0
 72 73  1  0
 73 74  1  0
 74 75  1  0
 75 76  1  0
 76 77  1  0
 77 78  2  3
 77 79  1  0
 72 80  1  0
 80 81  2  0
 80 82  1  0
 82 83  1  0
 83 84  1  0
 84 85  1  0
 85 86  1  0
 86 87  1  0
 87 88  1  0
 88 89  2  3
 88 90  1  0
 83 91  1  0
 91 92  2  0
 91 93  1  0
 93 94  1  0
 94 95  1  0
 95 96  1  0
 96 97  1  0
 96 98  2  0
 94 99  1  0
 99100  2  0
 99101  1  0
101102  1  0
102103  1  0
103104  1  0
104105  1  0
105106  1  0
102107  1  0
107108  1  0
108109  1  0
109110  1  0
102111  1  0
111112  2  0
111113  1  0
113114  1  0
114115  1  0
115116  1  0
116117  1  0
117118  1  0
118119  1  0
119120  2  3
119121  1  0
114122  1  0
122123  2  0
122124  1  0
124125  1  0
125126  1  0
126127  1  0
127128  1  0
128129  1  0
129130  1  0
130131  2  3
130132  1  0
125133  1  0
133134  2  0
133135  1  0
135136  1  0
136137  1  0
137138  1  0
138139  1  0
139140  1  0
140141  1  0
141142  2  3
141143  1  0
136144  1  0
144145  2  0
144146  1  0
146147  1  0
147148  1  0
148149  1  0
149150  2  0
150151  1  0
151152  1  0
152153  2  0
153154  1  0
154155  2  0
155156  1  0
156157  2  0
147158  1  0
158159  2  0
158160  1  0
160161  1  0
161162  1  0
162163  1  0
163164  1  0
164165  1  0
165166  1  0
166167  2  3
166168  1  0
161169  1  0
169170  2  0
169171  1  0
171172  1  0
172173  1  0
173174  1  0
174175  1  0
175176  2  0
175177  1  0
172178  1  0
178179  2  0
178180  1  0
180181  1  0
181182  1  0
182183  1  0
183184  1  0
184185  1  0
185186  1  0
186187  1  0
187188  1  0
181189  1  0
181190  1  1
190191  2  0
190192  1  0
192193  1  0
193194  1  0
194195  1  0
195196  1  0
196197  1  0
196198  2  0
193199  1  0
199200  2  0
199201  1  0
201202  1  0
202203  1  0
203204  1  0
204205  1  0
205206  1  0
206207  1  0
207208  2  3
207209  1  0
202210  1  0
210211  2  0
210212  1  0
  8  3  1  0
157149  1  0
 11  6  1  0
157152  1  0
 18 13  2  0
 42106  2  0
 22  9  1  0
110188  2  0
 26 21  1  0
  2213  1  0
  4214  1  0
  5215  1  0
  8216  1  0
 15217  1  0
 17218  1  0
 18219  1  0
 19220  1  0
 23221  1  0
 24222  1  0
 26223  1  0
 27224  1  0
 29225  1  0
 30226  1  0
 30227  1  0
 31228  1  0
 31229  1  0
 34230  1  0
 36231  1  0
 36232  1  0
 37233  1  0
 37234  1  0
 38235  1  0
 38236  1  0
 39237  1  0
 39238  1  0
 40239  1  0
 40240  1  0
 41241  1  0
 41242  1  0
 42243  1  0
 43244  1  0
 43245  1  0
 43246  1  0
 46247  1  0
 47248  1  6
 48249  1  0
 48250  1  0
 49251  1  0
 49252  1  0
 50253  1  0
 50254  1  0
 51255  1  0
 53256  1  0
 53257  1  0
 54258  1  0
 54259  1  0
 57260  1  0
 58261  1  6
 59262  1  0
 59263  1  0
 60264  1  0
 60265  1  0
 62266  1  0
 62267  1  0
 66268  1  0
 67269  1  6
 68270  1  0
 68271  1  0
 68272  1  0
 71273  1  0
 72274  1  6
 73275  1  0
 73276  1  0
 74277  1  0
 74278  1  0
 75279  1  0
 75280  1  0
 76281  1  0
 78282  1  0
 78283  1  0
 79284  1  0
 79285  1  0
 82286  1  0
 83287  1  6
 84288  1  0
 84289  1  0
 85290  1  0
 85291  1  0
 86292  1  0
 86293  1  0
 87294  1  0
 89295  1  0
 89296  1  0
 90297  1  0
 90298  1  0
 93299  1  0
 94300  1  6
 95301  1  0
 95302  1  0
 97303  1  0
 97304  1  0
101305  1  0
103306  1  0
103307  1  0
104308  1  0
104309  1  0
105310  1  0
105311  1  0
106312  1  0
107313  1  0
107314  1  0
108315  1  0
108316  1  0
109317  1  0
109318  1  0
110319  1  0
113320  1  0
114321  1  6
115322  1  0
115323  1  0
116324  1  0
116325  1  0
117326  1  0
117327  1  0
118328  1  0
120329  1  0
120330  1  0
121331  1  0
121332  1  0
124333  1  0
125334  1  6
126335  1  0
126336  1  0
127337  1  0
127338  1  0
128339  1  0
128340  1  0
129341  1  0
131342  1  0
131343  1  0
132344  1  0
132345  1  0
135346  1  0
136347  1  6
137348  1  0
137349  1  0
138350  1  0
138351  1  0
139352  1  0
139353  1  0
140354  1  0
142355  1  0
142356  1  0
143357  1  0
143358  1  0
146359  1  0
147360  1  6
148361  1  0
148362  1  0
150363  1  0
151364  1  0
153365  1  0
154366  1  0
155367  1  0
156368  1  0
160369  1  0
161370  1  6
162371  1  0
162372  1  0
163373  1  0
163374  1  0
164375  1  0
164376  1  0
165377  1  0
167378  1  0
167379  1  0
168380  1  0
168381  1  0
171382  1  0
172383  1  6
173384  1  0
173385  1  0
174386  1  0
174387  1  0
180388  1  0
182389  1  0
182390  1  0
183391  1  0
183392  1  0
184393  1  0
184394  1  0
185395  1  0
185396  1  0
186397  1  0
186398  1  0
187399  1  0
187400  1  0
188401  1  0
189402  1  0
189403  1  0
189404  1  0
192405  1  0
193406  1  1
194407  1  0
194408  1  0
195409  1  0
195410  1  0
197411  1  0
197412  1  0
201413  1  0
202414  1  6
203415  1  0
203416  1  0
204417  1  0
204418  1  0
205419  1  0
205420  1  0
206421  1  0
208422  1  0
208423  1  0
209424  1  0
209425  1  0
M  CHG  8  53   1  78   1  89   1 120   1 131   1 142   1 167   1 177  -1
M  CHG  2 208   1 212  -1
M  END
