
     RDKit          2D

403410  0  0  0  0  0  0  0  0999 V2000
   23.0636    4.6423    0.0000 C   0  0  0  0  0  0  0  0  0  0  0  0
   22.9328    6.1366    0.0000 N   0  0  0  0  0  0  0  0  0  0  0  0
   24.1615    6.9970    0.0000 C   0  0  0  0  0  0  0  0  0  0  0  0
   25.5210    6.3631    0.0000 C   0  0  0  0  0  0  0  0  0  0  0  0
   26.7497    7.2235    0.0000 C   0  0  0  0  0  0  0  0  0  0  0  0
   26.6190    8.7178    0.0000 C   0  0  0  0  0  0  0  0  0  0  0  0
   25.2595    9.3517    0.0000 C   0  0  0  0  0  0  0  0  0  0  0  0
   24.0308    8.4913    0.0000 C   0  0  0  0  0  0  0  0  0  0  0  0
   25.4423   10.8405    0.0000 C   0  0  0  0  0  0  0  0  0  0  0  0
   26.9147   11.1267    0.0000 O   0  0  0  0  0  0  0  0  0  0  0  0
   27.6420    9.8148    0.0000 C   0  0  0  0  0  0  0  0  0  0  0  0
   29.1308    9.6320    0.0000 O   0  0  0  0  0  0  0  0  0  0  0  0
   25.7797   12.3021    0.0000 C   0  0  0  0  0  0  0  0  0  0  0  0
   24.6827   13.3250    0.0000 C   0  0  0  0  0  0  0  0  0  0  0  0
   25.0201   14.7866    0.0000 C   0  0  0  0  0  0  0  0  0  0  0  0
   26.4545   15.2252    0.0000 C   0  0  0  0  0  0  0  0  0  0  0  0
   27.5516   14.2022    0.0000 C   0  0  0  0  0  0  0  0  0  0  0  0
   27.2142   12.7406    0.0000 C   0  0  0  0  0  0  0  0  0  0  0  0
   26.7919   16.6867    0.0000 O   0  0  0  0  0  0  0  0  0  0  0  0
   23.2482   12.8865    0.0000 O   0  0  0  0  0  0  0  0  0  0  0  0
   22.9108   11.4249    0.0000 C   0  0  0  0  0  0  0  0  0  0  0  0
   24.0078   10.4019    0.0000 C   0  0  0  0  0  0  0  0  0  0  0  0
   23.1585    9.4178    0.0000 C   0  0  0  0  0  0  0  0  0  0  0  0
   22.3934    9.1839    0.0000 C   0  0  0  0  0  0  0  0  0  0  0  0
   21.8083    9.7294    0.0000 C   0  0  0  0  0  0  0  0  0  0  0  0
   21.9883   10.5089    0.0000 C   0  0  0  0  0  0  0  0  0  0  0  0
   19.7045    9.0862    0.0000 O   0  0  0  0  0  0  0  0  0  0  0  0
   24.4230    4.0084    0.0000 S   0  0  0  0  0  0  0  0  0  0  0  0
   21.8349    3.7820    0.0000 N   0  0  0  0  0  0  0  0  0  0  0  0
   21.9656    2.2877    0.0000 C   0  0  0  0  0  0  0  0  0  0  0  0
   20.7369    1.4273    0.0000 C   0  0  0  0  0  0  0  0  0  0  0  0
   20.8676   -0.0670    0.0000 C   0  0  0  0  0  0  0  0  0  0  0  0
   21.6258   -0.3133    0.0000 O   0  0  0  0  0  0  0  0  0  0  0  0
   19.6389   -0.9274    0.0000 N   0  0  0  0  0  0  0  0  0  0  0  0
   19.7697   -2.4217    0.0000 C   0  0  0  0  0  0  0  0  0  0  0  0
   21.2185   -2.0334    0.0000 C   0  0  0  0  0  0  0  0  0  0  0  0
   22.7128   -2.1641    0.0000 O   0  0  0  0  0  0  0  0  0  0  0  0
   21.7805   -0.6427    0.0000 C   0  0  0  0  0  0  0  0  0  0  0  0
   19.3814   -3.8706    0.0000 C   0  0  0  0  0  0  0  0  0  0  0  0
   20.6672   -4.6430    0.0000 O   0  0  0  0  0  0  0  0  0  0  0  0
   17.9326   -4.2588    0.0000 N   0  0  0  0  0  0  0  0  0  0  0  0
   17.5444   -5.7077    0.0000 C   0  0  0  0  0  0  0  0  0  0  0  0
   19.0386   -5.8384    0.0000 C   0  0  0  0  0  0  0  0  0  0  0  0
   19.8990   -4.6097    0.0000 C   0  0  0  0  0  0  0  0  0  0  0  0
   21.3933   -4.7404    0.0000 C   0  0  0  0  0  0  0  0  0  0  0  0
   22.2536   -3.5117    0.0000 N   0  0  0  0  0  0  0  0  0  0  0  0
   23.7479   -3.6424    0.0000 C   0  0  0  0  0  0  0  0  0  0  0  0
   24.6083   -2.4136    0.0000 N   0  0  0  0  0  0  0  0  0  0  0  0
   24.3819   -5.0018    0.0000 N   0  0  0  0  0  0  0  0  0  0  0  0
   16.6840   -6.9364    0.0000 C   0  0  0  0  0  0  0  0  0  0  0  0
   17.6281   -8.1021    0.0000 O   0  0  0  0  0  0  0  0  0  0  0  0
   15.1897   -6.8057    0.0000 N   0  0  0  0  0  0  0  0  0  0  0  0
   14.3294   -8.0345    0.0000 C   0  0  0  0  0  0  0  0  0  0  0  0
   15.6888   -8.6684    0.0000 C   0  0  0  0  0  0  0  0  0  0  0  0
   16.9175   -7.8080    0.0000 C   0  0  0  0  0  0  0  0  0  0  0  0
   18.2770   -8.4419    0.0000 C   0  0  0  0  0  0  0  0  0  0  0  0
   19.6014   -7.7377    0.0000 N   0  0  0  0  0  0  0  0  0  0  0  0
   18.4078   -9.9362    0.0000 O   0  0  0  0  0  0  0  0  0  0  0  0
   13.1006   -8.8948    0.0000 C   0  0  0  0  0  0  0  0  0  0  0  0
   13.4126  -10.3620    0.0000 O   0  0  0  0  0  0  0  0  0  0  0  0
   11.7412   -8.2609    0.0000 N   0  0  0  0  0  0  0  0  0  0  0  0
   10.5124   -9.1213    0.0000 C   0  0  0  0  0  0  0  0  0  0  0  0
   11.6945  -10.0447    0.0000 C   0  0  0  0  0  0  0  0  0  0  0  0
    9.0636   -9.5095    0.0000 C   0  0  0  0  0  0  0  0  0  0  0  0
    9.0375  -11.0093    0.0000 O   0  0  0  0  0  0  0  0  0  0  0  0
    8.0029   -8.4489    0.0000 N   0  0  0  0  0  0  0  0  0  0  0  0
    6.5540   -8.8371    0.0000 C   0  0  0  0  0  0  0  0  0  0  0  0
    7.1879  -10.1966    0.0000 C   0  0  0  0  0  0  0  0  0  0  0  0
    8.6822  -10.3273    0.0000 C   0  0  0  0  0  0  0  0  0  0  0  0
    9.3162  -11.6868    0.0000 C   0  0  0  0  0  0  0  0  0  0  0  0
   10.8105  -11.8175    0.0000 N   0  0  0  0  0  0  0  0  0  0  0  0
   11.4444  -13.1769    0.0000 C   0  0  0  0  0  0  0  0  0  0  0  0
   12.9387  -13.3077    0.0000 N   0  0  0  0  0  0  0  0  0  0  0  0
   10.5841  -14.4057    0.0000 N   0  0  0  0  0  0  0  0  0  0  0  0
    5.0597   -8.7064    0.0000 C   0  0  0  0  0  0  0  0  0  0  0  0
    4.5223  -10.1068    0.0000 O   0  0  0  0  0  0  0  0  0  0  0  0
    4.4258   -7.3470    0.0000 N   0  0  0  0  0  0  0  0  0  0  0  0
    2.9315   -7.2162    0.0000 C   0  0  0  0  0  0  0  0  0  0  0  0
    3.0622   -8.7105    0.0000 C   0  0  0  0  0  0  0  0  0  0  0  0
    4.4217   -9.3445    0.0000 C   0  0  0  0  0  0  0  0  0  0  0  0
    4.5524  -10.8387    0.0000 C   0  0  0  0  0  0  0  0  0  0  0  0
    5.9119  -11.4727    0.0000 N   0  0  0  0  0  0  0  0  0  0  0  0
    6.0427  -12.9669    0.0000 C   0  0  0  0  0  0  0  0  0  0  0  0
    7.4021  -13.6009    0.0000 N   0  0  0  0  0  0  0  0  0  0  0  0
    4.8139  -13.8273    0.0000 N   0  0  0  0  0  0  0  0  0  0  0  0
    1.5720   -6.5823    0.0000 C   0  0  0  0  0  0  0  0  0  0  0  0
    0.5880   -7.7145    0.0000 O   0  0  0  0  0  0  0  0  0  0  0  0
    1.4413   -5.0880    0.0000 N   0  0  0  0  0  0  0  0  0  0  0  0
    0.0818   -4.4541    0.0000 C   0  0  0  0  0  0  0  0  0  0  0  0
   -0.3064   -5.9030    0.0000 C   0  0  0  0  0  0  0  0  0  0  0  0
    0.7543   -6.9637    0.0000 C   0  0  0  0  0  0  0  0  0  0  0  0
    0.3660   -8.4126    0.0000 N   0  0  0  0  0  0  0  0  0  0  0  0
    2.2540   -6.9376    0.0000 O   0  0  0  0  0  0  0  0  0  0  0  0
   -0.9789   -3.3935    0.0000 C   0  0  0  0  0  0  0  0  0  0  0  0
   -2.2908   -4.1208    0.0000 O   0  0  0  0  0  0  0  0  0  0  0  0
   -0.5907   -1.9446    0.0000 N   0  0  0  0  0  0  0  0  0  0  0  0
   -1.6513   -0.8839    0.0000 C   0  0  0  0  0  0  0  0  0  0  0  0
   -2.1307   -2.3053    0.0000 C   0  0  0  0  0  0  0  0  0  0  0  0
   -2.8703   -3.6102    0.0000 C   0  0  0  0  0  0  0  0  0  0  0  0
   -3.8436   -4.7516    0.0000 C   0  0  0  0  0  0  0  0  0  0  0  0
   -5.0153   -5.6882    0.0000 C   0  0  0  0  0  0  0  0  0  0  0  0
   -6.3430   -6.3861    0.0000 C   0  0  0  0  0  0  0  0  0  0  0  0
   -7.7788   -6.8201    0.0000 C   0  0  0  0  0  0  0  0  0  0  0  0
   -9.2709   -6.9746    0.0000 C   0  0  0  0  0  0  0  0  0  0  0  0
   -0.2300   -0.4046    0.0000 C   0  0  0  0  0  0  0  0  0  0  0  0
   -1.4497    0.6024    0.0000 C   0  0  0  0  0  0  0  0  0  0  0  0
    0.0452    0.7261    0.0000 O   0  0  0  0  0  0  0  0  0  0  0  0
   -1.5329    2.1001    0.0000 N   0  0  0  0  0  0  0  0  0  0  0  0
   -1.8981    3.5550    0.0000 C   0  0  0  0  0  0  0  0  0  0  0  0
   -0.9616    4.7267    0.0000 C   0  0  0  0  0  0  0  0  0  0  0  0
    0.5214    4.5015    0.0000 C   0  0  0  0  0  0  0  0  0  0  0  0
    1.4579    5.6732    0.0000 C   0  0  0  0  0  0  0  0  0  0  0  0
    2.9409    5.4479    0.0000 N   0  0  0  0  0  0  0  0  0  0  0  0
    3.8775    6.6196    0.0000 C   0  0  0  0  0  0  0  0  0  0  0  0
    5.3605    6.3944    0.0000 N   0  0  0  0  0  0  0  0  0  0  0  0
    3.3310    8.0165    0.0000 N   0  0  0  0  0  0  0  0  0  0  0  0
   -2.5321    4.9144    0.0000 C   0  0  0  0  0  0  0  0  0  0  0  0
   -1.3414    5.8267    0.0000 O   0  0  0  0  0  0  0  0  0  0  0  0
   -3.4119    6.1294    0.0000 N   0  0  0  0  0  0  0  0  0  0  0  0
   -4.5056    7.1558    0.0000 C   0  0  0  0  0  0  0  0  0  0  0  0
   -4.3512    8.6479    0.0000 C   0  0  0  0  0  0  0  0  0  0  0  0
   -2.9819    9.2601    0.0000 C   0  0  0  0  0  0  0  0  0  0  0  0
   -2.8275   10.7522    0.0000 C   0  0  0  0  0  0  0  0  0  0  0  0
   -1.4581   11.3645    0.0000 N   0  0  0  0  0  0  0  0  0  0  0  0
   -1.3037   12.8565    0.0000 C   0  0  0  0  0  0  0  0  0  0  0  0
    0.0656   13.4688    0.0000 N   0  0  0  0  0  0  0  0  0  0  0  0
   -2.5187   13.7362    0.0000 N   0  0  0  0  0  0  0  0  0  0  0  0
   -5.7739    7.9567    0.0000 C   0  0  0  0  0  0  0  0  0  0  0  0
   -5.2654    9.3679    0.0000 O   0  0  0  0  0  0  0  0  0  0  0  0
   -7.1709    8.5031    0.0000 N   0  0  0  0  0  0  0  0  0  0  0  0
   -8.6460    8.7753    0.0000 C   0  0  0  0  0  0  0  0  0  0  0  0
   -9.3227   10.1140    0.0000 C   0  0  0  0  0  0  0  0  0  0  0  0
   -8.5018   11.3694    0.0000 C   0  0  0  0  0  0  0  0  0  0  0  0
   -9.1785   12.7080    0.0000 C   0  0  0  0  0  0  0  0  0  0  0  0
   -8.3576   13.9635    0.0000 N   0  0  0  0  0  0  0  0  0  0  0  0
   -9.0344   15.3021    0.0000 C   0  0  0  0  0  0  0  0  0  0  0  0
   -8.2134   16.5575    0.0000 N   0  0  0  0  0  0  0  0  0  0  0  0
  -10.5321   15.3854    0.0000 N   0  0  0  0  0  0  0  0  0  0  0  0
  -10.1459    8.7634    0.0000 C   0  0  0  0  0  0  0  0  0  0  0  0
  -10.4811   10.2255    0.0000 O   0  0  0  0  0  0  0  0  0  0  0  0
  -11.6165    8.4678    0.0000 N   0  0  0  0  0  0  0  0  0  0  0  0
  -13.0046    7.8993    0.0000 C   0  0  0  0  0  0  0  0  0  0  0  0
  -14.2976    8.6596    0.0000 C   0  0  0  0  0  0  0  0  0  0  0  0
  -14.2858   10.1595    0.0000 C   0  0  0  0  0  0  0  0  0  0  0  0
  -13.0653   11.0315    0.0000 C   0  0  0  0  0  0  0  0  0  0  0  0
  -13.5175   12.4618    0.0000 N   0  0  0  0  0  0  0  0  0  0  0  0
  -15.0174   12.4736    0.0000 C   0  0  0  0  0  0  0  0  0  0  0  0
  -16.0123   13.5963    0.0000 C   0  0  0  0  0  0  0  0  0  0  0  0
  -17.4819   13.2960    0.0000 C   0  0  0  0  0  0  0  0  0  0  0  0
  -17.9567   11.8732    0.0000 C   0  0  0  0  0  0  0  0  0  0  0  0
  -16.9619   10.7505    0.0000 C   0  0  0  0  0  0  0  0  0  0  0  0
  -15.4923   11.0508    0.0000 C   0  0  0  0  0  0  0  0  0  0  0  0
  -14.2600    7.0783    0.0000 C   0  0  0  0  0  0  0  0  0  0  0  0
  -15.3324    8.1271    0.0000 O   0  0  0  0  0  0  0  0  0  0  0  0
  -15.3373    6.0346    0.0000 N   0  0  0  0  0  0  0  0  0  0  0  0
  -16.1977    4.8059    0.0000 C   0  0  0  0  0  0  0  0  0  0  0  0
  -17.6965    4.7464    0.0000 C   0  0  0  0  0  0  0  0  0  0  0  0
  -18.4974    6.0146    0.0000 C   0  0  0  0  0  0  0  0  0  0  0  0
  -19.9963    5.9551    0.0000 C   0  0  0  0  0  0  0  0  0  0  0  0
  -20.7972    7.2234    0.0000 N   0  0  0  0  0  0  0  0  0  0  0  0
  -22.2960    7.1639    0.0000 C   0  0  0  0  0  0  0  0  0  0  0  0
  -23.0970    8.4322    0.0000 N   0  0  0  0  0  0  0  0  0  0  0  0
  -22.9939    5.8361    0.0000 N   0  0  0  0  0  0  0  0  0  0  0  0
  -16.8099    3.4365    0.0000 C   0  0  0  0  0  0  0  0  0  0  0  0
  -18.2791    3.7390    0.0000 O   0  0  0  0  0  0  0  0  0  0  0  0
  -17.1520    1.9760    0.0000 N   0  0  0  0  0  0  0  0  0  0  0  0
  -17.2115    0.4772    0.0000 C   0  0  0  0  0  0  0  0  0  0  0  0
  -18.4402   -0.3832    0.0000 C   0  0  0  0  0  0  0  0  0  0  0  0
  -19.7996    0.2508    0.0000 C   0  0  0  0  0  0  0  0  0  0  0  0
  -21.0284   -0.6096    0.0000 C   0  0  0  0  0  0  0  0  0  0  0  0
  -22.3878    0.0243    0.0000 O   0  0  0  0  0  0  0  0  0  0  0  0
  -20.8976   -2.1039    0.0000 O   0  0  0  0  0  0  0  0  0  0  0  0
  -16.9862   -1.0058    0.0000 C   0  0  0  0  0  0  0  0  0  0  0  0
  -18.3857   -1.5456    0.0000 O   0  0  0  0  0  0  0  0  0  0  0  0
  -16.4844   -2.4193    0.0000 N   0  0  0  0  0  0  0  0  0  0  0  0
  -15.7241   -3.7124    0.0000 C   0  0  0  0  0  0  0  0  0  0  0  0
  -14.7328   -4.8381    0.0000 C   0  0  0  0  0  0  0  0  0  0  0  0
  -13.5464   -5.7560    0.0000 C   0  0  0  0  0  0  0  0  0  0  0  0
  -12.2077   -6.4327    0.0000 C   0  0  0  0  0  0  0  0  0  0  0  0
  -10.7652   -6.8439    0.0000 C   0  0  0  0  0  0  0  0  0  0  0  0
  -17.2202   -3.8194    0.0000 C   0  0  0  0  0  0  0  0  0  0  0  0
  -16.2926   -5.1005    0.0000 C   0  0  0  0  0  0  0  0  0  0  0  0
  -15.6891   -6.4737    0.0000 O   0  0  0  0  0  0  0  0  0  0  0  0
  -17.7789   -5.3022    0.0000 N   0  0  0  0  0  0  0  0  0  0  0  0
  -18.3475   -6.6902    0.0000 C   0  0  0  0  0  0  0  0  0  0  0  0
  -18.4069   -8.1891    0.0000 C   0  0  0  0  0  0  0  0  0  0  0  0
  -19.7347   -8.8870    0.0000 C   0  0  0  0  0  0  0  0  0  0  0  0
  -19.7941  -10.3858    0.0000 C   0  0  0  0  0  0  0  0  0  0  0  0
  -21.0269  -11.2404    0.0000 N   0  0  0  0  0  0  0  0  0  0  0  0
  -18.5259  -11.1867    0.0000 O   0  0  0  0  0  0  0  0  0  0  0  0
  -19.8338   -6.8920    0.0000 C   0  0  0  0  0  0  0  0  0  0  0  0
  -20.7517   -5.7056    0.0000 O   0  0  0  0  0  0  0  0  0  0  0  0
  -20.4023   -8.2800    0.0000 N   0  0  0  0  0  0  0  0  0  0  0  0
  -21.8887   -8.4817    0.0000 C   0  0  0  0  0  0  0  0  0  0  0  0
  -23.3544   -8.1629    0.0000 C   0  0  0  0  0  0  0  0  0  0  0  0
  -23.8112   -6.7341    0.0000 C   0  0  0  0  0  0  0  0  0  0  0  0
  -25.2769   -6.4153    0.0000 C   0  0  0  0  0  0  0  0  0  0  0  0
  -25.7337   -4.9865    0.0000 N   0  0  0  0  0  0  0  0  0  0  0  0
  -27.1994   -4.6677    0.0000 C   0  0  0  0  0  0  0  0  0  0  0  0
  -27.6561   -3.2389    0.0000 N   0  0  0  0  0  0  0  0  0  0  0  0
  -28.2084   -5.7776    0.0000 N   0  0  0  0  0  0  0  0  0  0  0  0
  -22.4572   -9.8698    0.0000 C   0  0  0  0  0  0  0  0  0  0  0  0
  -23.9079  -10.2512    0.0000 O   0  0  0  0  0  0  0  0  0  0  0  0
  -21.6908  -11.1593    0.0000 O   0  0  0  0  0  0  0  0  0  0  0  0
   21.5062    6.6001    0.0000 H   0  0  0  0  0  0  0  0  0  0  0  0
   25.6518    4.8688    0.0000 H   0  0  0  0  0  0  0  0  0  0  0  0
   28.1092    6.5896    0.0000 H   0  0  0  0  0  0  0  0  0  0  0  0
   22.5583    8.7774    0.0000 H   0  0  0  0  0  0  0  0  0  0  0  0
   23.9230   15.8096    0.0000 H   0  0  0  0  0  0  0  0  0  0  0  0
   28.9860   14.6408    0.0000 H   0  0  0  0  0  0  0  0  0  0  0  0
   28.3112   11.7176    0.0000 H   0  0  0  0  0  0  0  0  0  0  0  0
   28.2264   17.1253    0.0000 H   0  0  0  0  0  0  0  0  0  0  0  0
   24.7675    7.9174    0.0000 H   0  0  0  0  0  0  0  0  0  0  0  0
   21.7229    7.0923    0.0000 H   0  0  0  0  0  0  0  0  0  0  0  0
   20.3793   12.0093    0.0000 H   0  0  0  0  0  0  0  0  0  0  0  0
   18.6074   10.1092    0.0000 H   0  0  0  0  0  0  0  0  0  0  0  0
   20.4754    4.4159    0.0000 H   0  0  0  0  0  0  0  0  0  0  0  0
   23.4145    2.6759    0.0000 H   0  0  0  0  0  0  0  0  0  0  0  0
   22.5995    0.9282    0.0000 H   0  0  0  0  0  0  0  0  0  0  0  0
   20.1029    2.7867    0.0000 H   0  0  0  0  0  0  0  0  0  0  0  0
   19.2880    1.0390    0.0000 H   0  0  0  0  0  0  0  0  0  0  0  0
   18.2794   -0.2935    0.0000 H   0  0  0  0  0  0  0  0  0  0  0  0
   18.2754   -2.2910    0.0000 H   0  0  0  0  0  0  0  0  0  0  0  0
   21.7070   -3.4517    0.0000 H   0  0  0  0  0  0  0  0  0  0  0  0
   23.5732   -0.9354    0.0000 H   0  0  0  0  0  0  0  0  0  0  0  0
   22.9917   -0.0442    0.0000 H   0  0  0  0  0  0  0  0  0  0  0  0
   21.4760    0.9098    0.0000 H   0  0  0  0  0  0  0  0  0  0  0  0
   20.2077   -0.0558    0.0000 H   0  0  0  0  0  0  0  0  0  0  0  0
   16.8719   -3.1982    0.0000 H   0  0  0  0  0  0  0  0  0  0  0  0
   16.1849   -5.0738    0.0000 H   0  0  0  0  0  0  0  0  0  0  0  0
   20.3107   -6.6333    0.0000 H   0  0  0  0  0  0  0  0  0  0  0  0
   18.8299   -7.3238    0.0000 H   0  0  0  0  0  0  0  0  0  0  0  0
   20.2872   -3.1608    0.0000 H   0  0  0  0  0  0  0  0  0  0  0  0
   18.7333   -3.6656    0.0000 H   0  0  0  0  0  0  0  0  0  0  0  0
   22.7528   -5.3743    0.0000 H   0  0  0  0  0  0  0  0  0  0  0  0
   21.1846   -6.2258    0.0000 H   0  0  0  0  0  0  0  0  0  0  0  0
   21.9675   -2.0392    0.0000 H   0  0  0  0  0  0  0  0  0  0  0  0
   26.1026   -2.5444    0.0000 H   0  0  0  0  0  0  0  0  0  0  0  0
   24.1448   -0.9870    0.0000 H   0  0  0  0  0  0  0  0  0  0  0  0
   25.8762   -5.1325    0.0000 H   0  0  0  0  0  0  0  0  0  0  0  0
   23.5215   -6.2306    0.0000 H   0  0  0  0  0  0  0  0  0  0  0  0
   14.5558   -5.4463    0.0000 H   0  0  0  0  0  0  0  0  0  0  0  0
   13.2687   -6.9738    0.0000 H   0  0  0  0  0  0  0  0  0  0  0  0
   16.7495   -9.7290    0.0000 H   0  0  0  0  0  0  0  0  0  0  0  0
   14.8285   -9.8971    0.0000 H   0  0  0  0  0  0  0  0  0  0  0  0
   17.7779   -6.5793    0.0000 H   0  0  0  0  0  0  0  0  0  0  0  0
   16.1450   -6.5222    0.0000 H   0  0  0  0  0  0  0  0  0  0  0  0
   20.8652   -8.2154    0.0000 H   0  0  0  0  0  0  0  0  0  0  0  0
   19.7811   -6.0815    0.0000 H   0  0  0  0  0  0  0  0  0  0  0  0
   11.6104   -6.7666    0.0000 H   0  0  0  0  0  0  0  0  0  0  0  0
    9.8785   -7.7618    0.0000 H   0  0  0  0  0  0  0  0  0  0  0  0
   13.0585   -9.9732    0.0000 H   0  0  0  0  0  0  0  0  0  0  0  0
   12.2071  -11.5414    0.0000 H   0  0  0  0  0  0  0  0  0  0  0  0
   10.5891  -11.3141    0.0000 H   0  0  0  0  0  0  0  0  0  0  0  0
    8.3911   -7.0000    0.0000 H   0  0  0  0  0  0  0  0  0  0  0  0
    6.4233   -7.3428    0.0000 H   0  0  0  0  0  0  0  0  0  0  0  0
    7.1356  -11.6957    0.0000 H   0  0  0  0  0  0  0  0  0  0  0  0
    5.8761  -10.9239    0.0000 H   0  0  0  0  0  0  0  0  0  0  0  0
   10.1311   -9.9391    0.0000 H   0  0  0  0  0  0  0  0  0  0  0  0
    8.9170   -8.8458    0.0000 H   0  0  0  0  0  0  0  0  0  0  0  0
    9.4469  -13.1811    0.0000 H   0  0  0  0  0  0  0  0  0  0  0  0
    7.9254  -12.2487    0.0000 H   0  0  0  0  0  0  0  0  0  0  0  0
   11.8142  -10.7028    0.0000 H   0  0  0  0  0  0  0  0  0  0  0  0
   13.5727  -14.6671    0.0000 H   0  0  0  0  0  0  0  0  0  0  0  0
   13.7991  -12.0789    0.0000 H   0  0  0  0  0  0  0  0  0  0  0  0
   11.2180  -15.7651    0.0000 H   0  0  0  0  0  0  0  0  0  0  0  0
    9.0898  -14.2750    0.0000 H   0  0  0  0  0  0  0  0  0  0  0  0
    5.2861   -6.1182    0.0000 H   0  0  0  0  0  0  0  0  0  0  0  0
    3.3197   -5.7674    0.0000 H   0  0  0  0  0  0  0  0  0  0  0  0
    2.5003  -10.1013    0.0000 H   0  0  0  0  0  0  0  0  0  0  0  0
    1.5631   -8.7629    0.0000 H   0  0  0  0  0  0  0  0  0  0  0  0
    5.9160   -9.4752    0.0000 H   0  0  0  0  0  0  0  0  0  0  0  0
    5.1490   -8.0326    0.0000 H   0  0  0  0  0  0  0  0  0  0  0  0
    4.1642  -12.2876    0.0000 H   0  0  0  0  0  0  0  0  0  0  0  0
    3.0534  -10.8911    0.0000 H   0  0  0  0  0  0  0  0  0  0  0  0
    7.3123  -10.9352    0.0000 H   0  0  0  0  0  0  0  0  0  0  0  0
    7.5329  -15.0951    0.0000 H   0  0  0  0  0  0  0  0  0  0  0  0
    8.6309  -12.7405    0.0000 H   0  0  0  0  0  0  0  0  0  0  0  0
    4.9447  -15.3216    0.0000 H   0  0  0  0  0  0  0  0  0  0  0  0
    3.4545  -13.1934    0.0000 H   0  0  0  0  0  0  0  0  0  0  0  0
    2.6700   -4.2277    0.0000 H   0  0  0  0  0  0  0  0  0  0  0  0
    0.9421   -3.2254    0.0000 H   0  0  0  0  0  0  0  0  0  0  0  0
   -1.1668   -7.1318    0.0000 H   0  0  0  0  0  0  0  0  0  0  0  0
   -1.6659   -5.2691    0.0000 H   0  0  0  0  0  0  0  0  0  0  0  0
    1.2895   -9.5946    0.0000 H   0  0  0  0  0  0  0  0  0  0  0  0
   -1.0828   -8.8008    0.0000 H   0  0  0  0  0  0  0  0  0  0  0  0
    0.8947   -1.7359    0.0000 H   0  0  0  0  0  0  0  0  0  0  0  0
   -0.6397   -2.4693    0.0000 H   0  0  0  0  0  0  0  0  0  0  0  0
   -1.4476   -3.6407    0.0000 H   0  0  0  0  0  0  0  0  0  0  0  0
   -1.5020   -4.2248    0.0000 H   0  0  0  0  0  0  0  0  0  0  0  0
   -2.2798   -4.9891    0.0000 H   0  0  0  0  0  0  0  0  0  0  0  0
   -2.3887   -5.1168    0.0000 H   0  0  0  0  0  0  0  0  0  0  0  0
   -3.3484   -6.1676    0.0000 H   0  0  0  0  0  0  0  0  0  0  0  0
   -3.7432   -6.4831    0.0000 H   0  0  0  0  0  0  0  0  0  0  0  0
   -4.7970   -7.1723    0.0000 H   0  0  0  0  0  0  0  0  0  0  0  0
   -5.2444   -7.4074    0.0000 H   0  0  0  0  0  0  0  0  0  0  0  0
   -6.4096   -7.8846    0.0000 H   0  0  0  0  0  0  0  0  0  0  0  0
   -6.8933   -8.0309    0.0000 H   0  0  0  0  0  0  0  0  0  0  0  0
   -8.3030   -8.2256    0.0000 H   0  0  0  0  0  0  0  0  0  0  0  0
   -9.2590   -8.4745    0.0000 H   0  0  0  0  0  0  0  0  0  0  0  0
    1.0082   -1.2512    0.0000 H   0  0  0  0  0  0  0  0  0  0  0  0
    1.0471    0.3822    0.0000 H   0  0  0  0  0  0  0  0  0  0  0  0
   -0.6090    1.0468    0.0000 H   0  0  0  0  0  0  0  0  0  0  0  0
   -0.0336    2.1429    0.0000 H   0  0  0  0  0  0  0  0  0  0  0  0
   -0.4822    3.0599    0.0000 H   0  0  0  0  0  0  0  0  0  0  0  0
   -0.4823    6.1480    0.0000 H   0  0  0  0  0  0  0  0  0  0  0  0
   -2.0651    5.7427    0.0000 H   0  0  0  0  0  0  0  0  0  0  0  0
    1.8379    3.7826    0.0000 H   0  0  0  0  0  0  0  0  0  0  0  0
    0.4002    3.0064    0.0000 H   0  0  0  0  0  0  0  0  0  0  0  0
    1.9373    7.0945    0.0000 H   0  0  0  0  0  0  0  0  0  0  0  0
    0.2389    6.5471    0.0000 H   0  0  0  0  0  0  0  0  0  0  0  0
    3.4874    4.0510    0.0000 H   0  0  0  0  0  0  0  0  0  0  0  0
    6.2970    7.5661    0.0000 H   0  0  0  0  0  0  0  0  0  0  0  0
    5.9069    4.9975    0.0000 H   0  0  0  0  0  0  0  0  0  0  0  0
    4.2676    9.1882    0.0000 H   0  0  0  0  0  0  0  0  0  0  0  0
    1.8481    8.2418    0.0000 H   0  0  0  0  0  0  0  0  0  0  0  0
   -2.1736    6.9760    0.0000 H   0  0  0  0  0  0  0  0  0  0  0  0
   -3.0468    7.5048    0.0000 H   0  0  0  0  0  0  0  0  0  0  0  0
   -4.7164   10.1027    0.0000 H   0  0  0  0  0  0  0  0  0  0  0  0
   -5.8288    8.9060    0.0000 H   0  0  0  0  0  0  0  0  0  0  0  0
   -1.4857    9.3672    0.0000 H   0  0  0  0  0  0  0  0  0  0  0  0
   -2.2755    7.9369    0.0000 H   0  0  0  0  0  0  0  0  0  0  0  0
   -3.1927   12.2070    0.0000 H   0  0  0  0  0  0  0  0  0  0  0  0
   -4.3255   10.8283    0.0000 H   0  0  0  0  0  0  0  0  0  0  0  0
   -0.2432   10.4847    0.0000 H   0  0  0  0  0  0  0  0  0  0  0  0
    0.2200   14.9608    0.0000 H   0  0  0  0  0  0  0  0  0  0  0  0
    1.2805   12.5891    0.0000 H   0  0  0  0  0  0  0  0  0  0  0  0
   -2.3643   15.2283    0.0000 H   0  0  0  0  0  0  0  0  0  0  0  0
   -3.8880   13.1239    0.0000 H   0  0  0  0  0  0  0  0  0  0  0  0
   -6.5869    9.8848    0.0000 H   0  0  0  0  0  0  0  0  0  0  0  0
   -7.6074    9.8576    0.0000 H   0  0  0  0  0  0  0  0  0  0  0  0
  -10.4165   11.1404    0.0000 H   0  0  0  0  0  0  0  0  0  0  0  0
  -10.7054    9.5323    0.0000 H   0  0  0  0  0  0  0  0  0  0  0  0
   -7.3010   12.2683    0.0000 H   0  0  0  0  0  0  0  0  0  0  0  0
   -7.1921   10.6381    0.0000 H   0  0  0  0  0  0  0  0  0  0  0  0
  -10.2723   13.7345    0.0000 H   0  0  0  0  0  0  0  0  0  0  0  0
  -10.4800   11.9622    0.0000 H   0  0  0  0  0  0  0  0  0  0  0  0
   -6.8599   13.8802    0.0000 H   0  0  0  0  0  0  0  0  0  0  0  0
   -8.8902   17.8962    0.0000 H   0  0  0  0  0  0  0  0  0  0  0  0
   -6.7157   16.4743    0.0000 H   0  0  0  0  0  0  0  0  0  0  0  0
  -11.2088   16.7240    0.0000 H   0  0  0  0  0  0  0  0  0  0  0  0
  -11.3530   14.1299    0.0000 H   0  0  0  0  0  0  0  0  0  0  0  0
  -11.8723    9.9459    0.0000 H   0  0  0  0  0  0  0  0  0  0  0  0
  -12.8976    9.3955    0.0000 H   0  0  0  0  0  0  0  0  0  0  0  0
  -15.7286    9.1095    0.0000 H   0  0  0  0  0  0  0  0  0  0  0  0
  -15.1463    7.4227    0.0000 H   0  0  0  0  0  0  0  0  0  0  0  0
  -11.5952   10.7337    0.0000 H   0  0  0  0  0  0  0  0  0  0  0  0
  -12.6262   13.6683    0.0000 H   0  0  0  0  0  0  0  0  0  0  0  0
  -15.5375   15.0191    0.0000 H   0  0  0  0  0  0  0  0  0  0  0  0
  -18.4768   14.4187    0.0000 H   0  0  0  0  0  0  0  0  0  0  0  0
  -19.4264   11.5729    0.0000 H   0  0  0  0  0  0  0  0  0  0  0  0
  -17.4367    9.3277    0.0000 H   0  0  0  0  0  0  0  0  0  0  0  0
  -16.3516    7.1397    0.0000 H   0  0  0  0  0  0  0  0  0  0  0  0
  -16.7507    6.2002    0.0000 H   0  0  0  0  0  0  0  0  0  0  0  0
  -19.0846    4.1778    0.0000 H   0  0  0  0  0  0  0  0  0  0  0  0
  -17.7418    3.2471    0.0000 H   0  0  0  0  0  0  0  0  0  0  0  0
  -18.8163    7.4804    0.0000 H   0  0  0  0  0  0  0  0  0  0  0  0
  -17.2882    6.9022    0.0000 H   0  0  0  0  0  0  0  0  0  0  0  0
  -21.3843    5.3866    0.0000 H   0  0  0  0  0  0  0  0  0  0  0  0
  -19.8584    4.4615    0.0000 H   0  0  0  0  0  0  0  0  0  0  0  0
  -20.0993    8.5512    0.0000 H   0  0  0  0  0  0  0  0  0  0  0  0
  -24.5958    8.3727    0.0000 H   0  0  0  0  0  0  0  0  0  0  0  0
  -22.3991    9.7599    0.0000 H   0  0  0  0  0  0  0  0  0  0  0  0
  -24.4927    5.7766    0.0000 H   0  0  0  0  0  0  0  0  0  0  0  0
  -22.1930    4.5679    0.0000 H   0  0  0  0  0  0  0  0  0  0  0  0
  -18.6027    2.3574    0.0000 H   0  0  0  0  0  0  0  0  0  0  0  0
  -18.4305    1.3512    0.0000 H   0  0  0  0  0  0  0  0  0  0  0  0
  -19.4439   -1.4979    0.0000 H   0  0  0  0  0  0  0  0  0  0  0  0
  -17.6677   -1.6689    0.0000 H   0  0  0  0  0  0  0  0  0  0  0  0
  -20.8603    1.3114    0.0000 H   0  0  0  0  0  0  0  0  0  0  0  0
  -19.2622    1.6512    0.0000 H   0  0  0  0  0  0  0  0  0  0  0  0
  -17.9109   -2.8828    0.0000 H   0  0  0  0  0  0  0  0  0  0  0  0
  -15.0283   -6.3087    0.0000 H   0  0  0  0  0  0  0  0  0  0  0  0
  -16.0447   -5.5654    0.0000 H   0  0  0  0  0  0  0  0  0  0  0  0
  -13.7410   -7.2433    0.0000 H   0  0  0  0  0  0  0  0  0  0  0  0
  -14.6969   -6.7184    0.0000 H   0  0  0  0  0  0  0  0  0  0  0  0
  -11.9355   -7.9078    0.0000 H   0  0  0  0  0  0  0  0  0  0  0  0
  -13.2900   -7.4713    0.0000 H   0  0  0  0  0  0  0  0  0  0  0  0
  -11.0373   -8.3190    0.0000 H   0  0  0  0  0  0  0  0  0  0  0  0
  -18.1826   -4.9699    0.0000 H   0  0  0  0  0  0  0  0  0  0  0  0
  -18.6628   -3.4082    0.0000 H   0  0  0  0  0  0  0  0  0  0  0  0
  -17.4314   -2.3343    0.0000 H   0  0  0  0  0  0  0  0  0  0  0  0
  -18.8346   -4.2365    0.0000 H   0  0  0  0  0  0  0  0  0  0  0  0
  -16.8817   -7.0091    0.0000 H   0  0  0  0  0  0  0  0  0  0  0  0
  -17.9502   -9.6178    0.0000 H   0  0  0  0  0  0  0  0  0  0  0  0
  -16.9205   -7.9874    0.0000 H   0  0  0  0  0  0  0  0  0  0  0  0
  -21.2210   -9.0887    0.0000 H   0  0  0  0  0  0  0  0  0  0  0  0
  -20.8088   -7.8400    0.0000 H   0  0  0  0  0  0  0  0  0  0  0  0
  -21.1814  -12.5825    0.0000 H   0  0  0  0  0  0  0  0  0  0  0  0
  -22.5814  -10.6411    0.0000 H   0  0  0  0  0  0  0  0  0  0  0  0
  -19.7988   -9.6533    0.0000 H   0  0  0  0  0  0  0  0  0  0  0  0
  -21.6470   -7.0013    0.0000 H   0  0  0  0  0  0  0  0  0  0  0  0
  -24.8051   -8.5443    0.0000 H   0  0  0  0  0  0  0  0  0  0  0  0
  -23.5962   -9.6433    0.0000 H   0  0  0  0  0  0  0  0  0  0  0  0
  -23.7517   -5.2353    0.0000 H   0  0  0  0  0  0  0  0  0  0  0  0
  -22.3605   -6.3528    0.0000 H   0  0  0  0  0  0  0  0  0  0  0  0
  -26.7633   -6.6170    0.0000 H   0  0  0  0  0  0  0  0  0  0  0  0
  -25.5186   -7.8957    0.0000 H   0  0  0  0  0  0  0  0  0  0  0  0
  -24.7247   -3.8766    0.0000 H   0  0  0  0  0  0  0  0  0  0  0  0
  -29.1218   -2.9201    0.0000 H   0  0  0  0  0  0  0  0  0  0  0  0
  -26.6471   -2.1290    0.0000 H   0  0  0  0  0  0  0  0  0  0  0  0
  -29.6741   -5.4588    0.0000 H   0  0  0  0  0  0  0  0  0  0  0  0
  -27.7516   -7.2064    0.0000 H   0  0  0  0  0  0  0  0  0  0  0  0
  1  2  1  0
  2  3  1  0
  3  4  2  0
  4  5  1  0
  5  6  2  0
  6  7  1  0
  7  8  2  0
  7  9  1  0
  9 10  1  0
 10 11  1  0
 11 12  2  0
  9 13  1  0
 13 14  1  0
 14 15  2  0
 15 16  1  0
 16 17  2  0
 17 18  1  0
 16 19  1  0
 14 20  1  0
 20 21  1  0
 21 22  2  0
 22 23  1  0
 23 24  2  0
 24 25  1  0
 25 26  2  0
 25 27  1  0
  1 28  2  0
  1 29  1  0
 29 30  1  0
 30 31  1  0
 31 32  1  0
 32 33  2  0
 32 34  1  0
 34 35  1  0
 35 36  1  0
 36 37  1  0
 36 38  1  0
 35 39  1  0
 39 40  2  0
 39 41  1  0
 41 42  1  0
 42 43  1  0
 43 44  1  0
 44 45  1  0
 45 46  1  0
 46 47  1  0
 47 48  2  3
 47 49  1  0
 42 50  1  0
 50 51  2  0
 50 52  1  0
 52 53  1  0
 53 54  1  0
 54 55  1  0
 55 56  1  0
 56 57  1  0
 56 58  2  0
 53 59  1  0
 59 60  2  0
 59 61  1  0
 61 62  1  0
 62 63  1  0
 62 64  1  0
 64 65  2  0
 64 66  1  0
 66 67  1  0
 67 68  1  0
 68 69  1  0
 69 70  1  0
 70 71  1  0
 71 72  1  0
 72 73  2  3
 72 74  1  0
 67 75  1  0
 75 76  2  0
 75 77  1  0
 77 78  1  0
 78 79  1  0
 79 80  1  0
 80 81  1  0
 81 82  1  0
 82 83  1  0
 83 84  2  3
 83 85  1  0
 78 86  1  0
 86 87  2  0
 86 88  1  0
 88 89  1  0
 89 90  1  0
 90 91  1  0
 91 92  1  0
 91 93  2  0
 89 94  1  0
 94 95  2  0
 94 96  1  0
 97 96  1  6
 97 98  1  0
 98 99  1  0
 99100  1  0
100101  1  0
101102  1  0
102103  1  0
103104  1  0
 97105  1  0
 97106  1  0
106107  2  0
106108  1  0
108109  1  0
109110  1  0
110111  1  0
111112  1  0
112113  1  0
113114  1  0
114115  2  3
114116  1  0
109117  1  0
117118  2  0
117119  1  0
119120  1  0
120121  1  0
121122  1  0
122123  1  0
123124  1  0
124125  1  0
125126  2  3
125127  1  0
120128  1  0
128129  2  0
128130  1  0
130131  1  0
131132  1  0
132133  1  0
133134  1  0
134135  1  0
135136  1  0
136137  2  3
136138  1  0
131139  1  0
139140  2  0
139141  1  0
141142  1  0
142143  1  0
143144  1  0
144145  2  0
145146  1  0
146147  1  0
147148  2  0
148149  1  0
149150  2  0
150151  1  0
151152  2  0
142153  1  0
153154  2  0
153155  1  0
155156  1  0
156157  1  0
157158  1  0
158159  1  0
159160  1  0
160161  1  0
161162  2  3
161163  1  0
156164  1  0
164165  2  0
164166  1  0
166167  1  0
167168  1  0
168169  1  0
169170  1  0
170171  2  0
170172  1  0
167173  1  0
173174  2  0
173175  1  0
175176  1  0
176177  1  0
177178  1  0
178179  1  0
179180  1  0
176181  1  0
176182  1  1
182183  2  0
182184  1  0
184185  1  0
185186  1  0
186187  1  0
187188  1  0
188189  1  0
188190  2  0
185191  1  0
191192  2  0
191193  1  0
193194  1  0
194195  1  0
195196  1  0
196197  1  0
197198  1  0
198199  1  0
199200  2  3
199201  1  0
194202  1  0
202203  2  0
202204  1  0
  8  3  1  0
152144  1  0
 11  6  1  0
152147  1  0
 18 13  2  0
104180  2  0
 22  9  1  0
 26 21  1  0
  2205  1  0
  4206  1  0
  5207  1  0
  8208  1  0
 15209  1  0
 17210  1  0
 18211  1  0
 19212  1  0
 23213  1  0
 24214  1  0
 26215  1  0
 27216  1  0
 29217  1  0
 30218  1  0
 30219  1  0
 31220  1  0
 31221  1  0
 34222  1  0
 35223  1  1
 36224  1  6
 37225  1  0
 38226  1  0
 38227  1  0
 38228  1  0
 41229  1  0
 42230  1  1
 43231  1  0
 43232  1  0
 44233  1  0
 44234  1  0
 45235  1  0
 45236  1  0
 46237  1  0
 48238  1  0
 48239  1  0
 49240  1  0
 49241  1  0
 52242  1  0
 53243  1  1
 54244  1  0
 54245  1  0
 55246  1  0
 55247  1  0
 57248  1  0
 57249  1  0
 61250  1  0
 62251  1  1
 63252  1  0
 63253  1  0
 63254  1  0
 66255  1  0
 67256  1  1
 68257  1  0
 68258  1  0
 69259  1  0
 69260  1  0
 70261  1  0
 70262  1  0
 71263  1  0
 73264  1  0
 73265  1  0
 74266  1  0
 74267  1  0
 77268  1  0
 78269  1  1
 79270  1  0
 79271  1  0
 80272  1  0
 80273  1  0
 81274  1  0
 81275  1  0
 82276  1  0
 84277  1  0
 84278  1  0
 85279  1  0
 85280  1  0
 88281  1  0
 89282  1  1
 90283  1  0
 90284  1  0
 92285  1  0
 92286  1  0
 96287  1  0
 98288  1  0
 98289  1  0
 99290  1  0
 99291  1  0
100292  1  0
100293  1  0
101294  1  0
101295  1  0
102296  1  0
102297  1  0
103298  1  0
103299  1  0
104300  1  0
105301  1  0
105302  1  0
105303  1  0
108304  1  0
109305  1  6
110306  1  0
110307  1  0
111308  1  0
111309  1  0
112310  1  0
112311  1  0
113312  1  0
115313  1  0
115314  1  0
116315  1  0
116316  1  0
119317  1  0
120318  1  6
121319  1  0
121320  1  0
122321  1  0
122322  1  0
123323  1  0
123324  1  0
124325  1  0
126326  1  0
126327  1  0
127328  1  0
127329  1  0
130330  1  0
131331  1  6
132332  1  0
132333  1  0
133334  1  0
133335  1  0
134336  1  0
134337  1  0
135338  1  0
137339  1  0
137340  1  0
138341  1  0
138342  1  0
141343  1  0
142344  1  6
143345  1  0
143346  1  0
145347  1  0
146348  1  0
148349  1  0
149350  1  0
150351  1  0
151352  1  0
155353  1  0
156354  1  6
157355  1  0
157356  1  0
158357  1  0
158358  1  0
159359  1  0
159360  1  0
160361  1  0
162362  1  0
162363  1  0
163364  1  0
163365  1  0
166366  1  0
167367  1  6
168368  1  0
168369  1  0
169370  1  0
169371  1  0
175372  1  0
177373  1  0
177374  1  0
178375  1  0
178376  1  0
179377  1  0
179378  1  0
180379  1  0
181380  1  0
181381  1  0
181382  1  0
184383  1  0
185384  1  1
186385  1  0
186386  1  0
187387  1  0
187388  1  0
189389  1  0
189390  1  0
193391  1  0
194392  1  6
195393  1  0
195394  1  0
196395  1  0
196396  1  0
197397  1  0
197398  1  0
198399  1  0
200400  1  0
200401  1  0
201402  1  0
201403  1  0
M  CHG  8  48   1  73   1  84   1 115   1 126   1 137   1 162   1 172  -1
M  CHG  2 200   1 204  -1
M  END
