
     RDKit          2D

307314  0  0  0  0  0  0  0  0999 V2000
   21.5900   -2.8495    0.0000 C   0  0  0  0  0  0  0  0  0  0  0  0
   23.0859   -2.7383    0.0000 N   0  0  0  0  0  0  0  0  0  0  0  0
   23.9301   -3.9782    0.0000 C   0  0  0  0  0  0  0  0  0  0  0  0
   23.2784   -5.3293    0.0000 C   0  0  0  0  0  0  0  0  0  0  0  0
   24.1226   -6.5692    0.0000 C   0  0  0  0  0  0  0  0  0  0  0  0
   25.6184   -6.4580    0.0000 C   0  0  0  0  0  0  0  0  0  0  0  0
   26.2701   -5.1070    0.0000 C   0  0  0  0  0  0  0  0  0  0  0  0
   25.4260   -3.8671    0.0000 C   0  0  0  0  0  0  0  0  0  0  0  0
   27.7564   -5.3093    0.0000 C   0  0  0  0  0  0  0  0  0  0  0  0
   28.0233   -6.7854    0.0000 O   0  0  0  0  0  0  0  0  0  0  0  0
   26.7020   -7.4953    0.0000 C   0  0  0  0  0  0  0  0  0  0  0  0
   26.4997   -8.9816    0.0000 O   0  0  0  0  0  0  0  0  0  0  0  0
   29.2134   -5.6659    0.0000 C   0  0  0  0  0  0  0  0  0  0  0  0
   30.2507   -4.5823    0.0000 C   0  0  0  0  0  0  0  0  0  0  0  0
   31.7077   -4.9389    0.0000 C   0  0  0  0  0  0  0  0  0  0  0  0
   32.1275   -6.3790    0.0000 C   0  0  0  0  0  0  0  0  0  0  0  0
   31.0902   -7.4625    0.0000 C   0  0  0  0  0  0  0  0  0  0  0  0
   29.6332   -7.1059    0.0000 C   0  0  0  0  0  0  0  0  0  0  0  0
   33.5845   -6.7355    0.0000 O   0  0  0  0  0  0  0  0  0  0  0  0
   29.8310   -3.1423    0.0000 O   0  0  0  0  0  0  0  0  0  0  0  0
   28.3740   -2.7857    0.0000 C   0  0  0  0  0  0  0  0  0  0  0  0
   27.3367   -3.8692    0.0000 C   0  0  0  0  0  0  0  0  0  0  0  0
   26.3638   -3.0070    0.0000 C   0  0  0  0  0  0  0  0  0  0  0  0
   26.1399   -2.2390    0.0000 C   0  0  0  0  0  0  0  0  0  0  0  0
   26.6932   -1.6611    0.0000 C   0  0  0  0  0  0  0  0  0  0  0  0
   27.4702   -1.8513    0.0000 C   0  0  0  0  0  0  0  0  0  0  0  0
   26.0776    0.4510    0.0000 O   0  0  0  0  0  0  0  0  0  0  0  0
   20.9383   -4.2005    0.0000 S   0  0  0  0  0  0  0  0  0  0  0  0
   20.7458   -1.6096    0.0000 N   0  0  0  0  0  0  0  0  0  0  0  0
   19.2500   -1.7207    0.0000 C   0  0  0  0  0  0  0  0  0  0  0  0
   18.4058   -0.4808    0.0000 C   0  0  0  0  0  0  0  0  0  0  0  0
   16.9099   -0.5919    0.0000 C   0  0  0  0  0  0  0  0  0  0  0  0
   16.7476   -1.3724    0.0000 O   0  0  0  0  0  0  0  0  0  0  0  0
   16.0657    0.6480    0.0000 N   0  0  0  0  0  0  0  0  0  0  0  0
   14.5698    0.5369    0.0000 C   0  0  0  0  0  0  0  0  0  0  0  0
   14.9390   -0.9170    0.0000 C   0  0  0  0  0  0  0  0  0  0  0  0
   16.3827   -1.3242    0.0000 C   0  0  0  0  0  0  0  0  0  0  0  0
   16.7519   -2.7780    0.0000 C   0  0  0  0  0  0  0  0  0  0  0  0
   18.1352   -3.3582    0.0000 O   0  0  0  0  0  0  0  0  0  0  0  0
   15.6774   -3.8247    0.0000 O   0  0  0  0  0  0  0  0  0  0  0  0
   13.1262    0.9440    0.0000 C   0  0  0  0  0  0  0  0  0  0  0  0
   12.0517   -0.1026    0.0000 O   0  0  0  0  0  0  0  0  0  0  0  0
   12.7570    2.3979    0.0000 N   0  0  0  0  0  0  0  0  0  0  0  0
   11.3133    2.8051    0.0000 C   0  0  0  0  0  0  0  0  0  0  0  0
   11.9650    4.1561    0.0000 C   0  0  0  0  0  0  0  0  0  0  0  0
   13.4609    4.2673    0.0000 C   0  0  0  0  0  0  0  0  0  0  0  0
   14.1126    5.6183    0.0000 N   0  0  0  0  0  0  0  0  0  0  0  0
   14.4499    3.1395    0.0000 O   0  0  0  0  0  0  0  0  0  0  0  0
    9.8174    2.6940    0.0000 C   0  0  0  0  0  0  0  0  0  0  0  0
    8.9732    3.9339    0.0000 O   0  0  0  0  0  0  0  0  0  0  0  0
    9.1657    1.3429    0.0000 N   0  0  0  0  0  0  0  0  0  0  0  0
    9.8757    0.0216    0.0000 C   0  0  0  0  0  0  0  0  0  0  0  0
    8.8384   -1.0619    0.0000 C   0  0  0  0  0  0  0  0  0  0  0  0
    7.4874   -0.4103    0.0000 C   0  0  0  0  0  0  0  0  0  0  0  0
    7.6897    1.0760    0.0000 C   0  0  0  0  0  0  0  0  0  0  0  0
    6.1904    1.1219    0.0000 C   0  0  0  0  0  0  0  0  0  0  0  0
    5.5624   -0.2403    0.0000 O   0  0  0  0  0  0  0  0  0  0  0  0
    5.4804    2.4432    0.0000 N   0  0  0  0  0  0  0  0  0  0  0  0
    3.9811    2.4891    0.0000 C   0  0  0  0  0  0  0  0  0  0  0  0
    4.1963    1.0046    0.0000 C   0  0  0  0  0  0  0  0  0  0  0  0
    5.5895    0.4487    0.0000 C   0  0  0  0  0  0  0  0  0  0  0  0
    5.8047   -1.0358    0.0000 C   0  0  0  0  0  0  0  0  0  0  0  0
    7.1198   -1.7573    0.0000 O   0  0  0  0  0  0  0  0  0  0  0  0
    4.6267   -1.9644    0.0000 O   0  0  0  0  0  0  0  0  0  0  0  0
    2.5879    3.0449    0.0000 C   0  0  0  0  0  0  0  0  0  0  0  0
    1.6696    1.8589    0.0000 O   0  0  0  0  0  0  0  0  0  0  0  0
    2.3727    4.5294    0.0000 N   0  0  0  0  0  0  0  0  0  0  0  0
    0.9795    5.0853    0.0000 C   0  0  0  0  0  0  0  0  0  0  0  0
    1.1001    3.5901    0.0000 C   0  0  0  0  0  0  0  0  0  0  0  0
    0.9356    2.0992    0.0000 C   0  0  0  0  0  0  0  0  0  0  0  0
    0.4919    0.6663    0.0000 C   0  0  0  0  0  0  0  0  0  0  0  0
   -0.2150   -0.6567    0.0000 C   0  0  0  0  0  0  0  0  0  0  0  0
   -1.1594   -1.8220    0.0000 C   0  0  0  0  0  0  0  0  0  0  0  0
   -2.3074   -2.7875    0.0000 C   0  0  0  0  0  0  0  0  0  0  0  0
   -3.6173   -3.5184    0.0000 C   0  0  0  0  0  0  0  0  0  0  0  0
    2.0962    6.0867    0.0000 C   0  0  0  0  0  0  0  0  0  0  0  0
    0.5781    6.5306    0.0000 C   0  0  0  0  0  0  0  0  0  0  0  0
    1.9028    7.2343    0.0000 O   0  0  0  0  0  0  0  0  0  0  0  0
   -0.0896    7.8738    0.0000 N   0  0  0  0  0  0  0  0  0  0  0  0
   -0.9994    9.0664    0.0000 C   0  0  0  0  0  0  0  0  0  0  0  0
   -0.6014   10.5126    0.0000 C   0  0  0  0  0  0  0  0  0  0  0  0
    0.8854   10.7113    0.0000 C   0  0  0  0  0  0  0  0  0  0  0  0
   -0.7220   12.0077    0.0000 C   0  0  0  0  0  0  0  0  0  0  0  0
    0.5125   12.8598    0.0000 C   0  0  0  0  0  0  0  0  0  0  0  0
   -2.1185   10.0652    0.0000 C   0  0  0  0  0  0  0  0  0  0  0  0
   -1.2305   11.2742    0.0000 O   0  0  0  0  0  0  0  0  0  0  0  0
   -3.4063   10.8342    0.0000 N   0  0  0  0  0  0  0  0  0  0  0  0
   -4.8165   11.3456    0.0000 C   0  0  0  0  0  0  0  0  0  0  0  0
   -5.2635   12.7774    0.0000 C   0  0  0  0  0  0  0  0  0  0  0  0
   -4.2470   13.8805    0.0000 C   0  0  0  0  0  0  0  0  0  0  0  0
   -4.6941   15.3123    0.0000 C   0  0  0  0  0  0  0  0  0  0  0  0
   -2.9146   14.5694    0.0000 C   0  0  0  0  0  0  0  0  0  0  0  0
   -6.2979   11.5809    0.0000 C   0  0  0  0  0  0  0  0  0  0  0  0
   -6.3877   13.0782    0.0000 O   0  0  0  0  0  0  0  0  0  0  0  0
   -7.7971   11.5315    0.0000 N   0  0  0  0  0  0  0  0  0  0  0  0
   -9.2598   11.1994    0.0000 C   0  0  0  0  0  0  0  0  0  0  0  0
  -10.4100   12.1622    0.0000 C   0  0  0  0  0  0  0  0  0  0  0  0
  -10.1513   13.6397    0.0000 C   0  0  0  0  0  0  0  0  0  0  0  0
  -11.3015   14.6025    0.0000 O   0  0  0  0  0  0  0  0  0  0  0  0
   -8.7424   14.1544    0.0000 O   0  0  0  0  0  0  0  0  0  0  0  0
  -10.6333   10.5964    0.0000 C   0  0  0  0  0  0  0  0  0  0  0  0
  -11.5184   11.8074    0.0000 O   0  0  0  0  0  0  0  0  0  0  0  0
  -11.8678    9.7443    0.0000 N   0  0  0  0  0  0  0  0  0  0  0  0
  -12.9188    8.6741    0.0000 C   0  0  0  0  0  0  0  0  0  0  0  0
  -14.4069    8.8622    0.0000 C   0  0  0  0  0  0  0  0  0  0  0  0
  -14.9881   10.2451    0.0000 C   0  0  0  0  0  0  0  0  0  0  0  0
  -16.4762   10.4332    0.0000 C   0  0  0  0  0  0  0  0  0  0  0  0
  -17.0574   11.8161    0.0000 O   0  0  0  0  0  0  0  0  0  0  0  0
  -17.3832    9.2385    0.0000 O   0  0  0  0  0  0  0  0  0  0  0  0
  -13.7482    7.4242    0.0000 C   0  0  0  0  0  0  0  0  0  0  0  0
  -15.1475    7.9645    0.0000 O   0  0  0  0  0  0  0  0  0  0  0  0
  -14.3261    6.0400    0.0000 N   0  0  0  0  0  0  0  0  0  0  0  0
  -14.6316    4.5715    0.0000 C   0  0  0  0  0  0  0  0  0  0  0  0
  -15.9852    3.9252    0.0000 C   0  0  0  0  0  0  0  0  0  0  0  0
  -17.2217    4.7743    0.0000 C   0  0  0  0  0  0  0  0  0  0  0  0
  -18.6355    4.2731    0.0000 C   0  0  0  0  0  0  0  0  0  0  0  0
  -19.5491    5.4628    0.0000 N   0  0  0  0  0  0  0  0  0  0  0  0
  -18.7000    6.6993    0.0000 C   0  0  0  0  0  0  0  0  0  0  0  0
  -17.2616    6.2738    0.0000 N   0  0  0  0  0  0  0  0  0  0  0  0
  -14.6536    3.0716    0.0000 C   0  0  0  0  0  0  0  0  0  0  0  0
  -16.1229    2.7696    0.0000 O   0  0  0  0  0  0  0  0  0  0  0  0
  -14.3914    1.5947    0.0000 N   0  0  0  0  0  0  0  0  0  0  0  0
  -13.8545    0.1941    0.0000 C   0  0  0  0  0  0  0  0  0  0  0  0
  -14.6438   -1.0814    0.0000 C   0  0  0  0  0  0  0  0  0  0  0  0
  -16.1431   -1.0356    0.0000 C   0  0  0  0  0  0  0  0  0  0  0  0
  -13.0621   -1.0795    0.0000 C   0  0  0  0  0  0  0  0  0  0  0  0
  -14.1349   -2.1279    0.0000 O   0  0  0  0  0  0  0  0  0  0  0  0
  -12.0431   -2.1802    0.0000 N   0  0  0  0  0  0  0  0  0  0  0  0
  -10.8342   -3.0682    0.0000 C   0  0  0  0  0  0  0  0  0  0  0  0
   -9.4790   -3.7113    0.0000 C   0  0  0  0  0  0  0  0  0  0  0  0
   -8.0266   -4.0863    0.0000 C   0  0  0  0  0  0  0  0  0  0  0  0
   -6.5296   -4.1797    0.0000 C   0  0  0  0  0  0  0  0  0  0  0  0
   -5.0418   -3.9881    0.0000 C   0  0  0  0  0  0  0  0  0  0  0  0
  -12.1666   -3.7571    0.0000 C   0  0  0  0  0  0  0  0  0  0  0  0
  -10.8086   -4.5680    0.0000 C   0  0  0  0  0  0  0  0  0  0  0  0
   -9.7121   -5.5915    0.0000 O   0  0  0  0  0  0  0  0  0  0  0  0
  -12.0947   -5.3400    0.0000 N   0  0  0  0  0  0  0  0  0  0  0  0
  -12.0691   -6.8398    0.0000 C   0  0  0  0  0  0  0  0  0  0  0  0
  -11.5322   -8.2404    0.0000 C   0  0  0  0  0  0  0  0  0  0  0  0
  -12.4766   -9.4057    0.0000 C   0  0  0  0  0  0  0  0  0  0  0  0
  -11.9397  -10.8063    0.0000 C   0  0  0  0  0  0  0  0  0  0  0  0
  -12.8841  -11.9716    0.0000 N   0  0  0  0  0  0  0  0  0  0  0  0
  -12.3472  -13.3722    0.0000 C   0  0  0  0  0  0  0  0  0  0  0  0
  -13.4266  -14.4137    0.0000 N   0  0  0  0  0  0  0  0  0  0  0  0
  -10.8657  -13.6075    0.0000 N   0  0  0  0  0  0  0  0  0  0  0  0
  -13.3552   -7.6118    0.0000 C   0  0  0  0  0  0  0  0  0  0  0  0
  -14.6668   -6.8840    0.0000 O   0  0  0  0  0  0  0  0  0  0  0  0
  -13.3296   -9.1116    0.0000 N   0  0  0  0  0  0  0  0  0  0  0  0
  -14.6157   -9.8836    0.0000 C   0  0  0  0  0  0  0  0  0  0  0  0
  -16.0883  -10.1692    0.0000 C   0  0  0  0  0  0  0  0  0  0  0  0
  -17.0719   -9.0367    0.0000 C   0  0  0  0  0  0  0  0  0  0  0  0
  -14.5902  -11.3834    0.0000 C   0  0  0  0  0  0  0  0  0  0  0  0
  -13.4936  -12.4069    0.0000 O   0  0  0  0  0  0  0  0  0  0  0  0
  -15.8762  -12.1554    0.0000 N   0  0  0  0  0  0  0  0  0  0  0  0
  -15.8507  -13.6552    0.0000 C   0  0  0  0  0  0  0  0  0  0  0  0
  -15.3137  -15.0558    0.0000 C   0  0  0  0  0  0  0  0  0  0  0  0
  -16.2582  -16.2211    0.0000 C   0  0  0  0  0  0  0  0  0  0  0  0
  -15.7212  -17.6217    0.0000 S   0  0  0  0  0  0  0  0  0  0  0  0
  -16.6657  -18.7870    0.0000 C   0  0  0  0  0  0  0  0  0  0  0  0
  -17.1368  -14.4272    0.0000 C   0  0  0  0  0  0  0  0  0  0  0  0
  -17.2942  -15.9189    0.0000 O   0  0  0  0  0  0  0  0  0  0  0  0
  -18.4484  -13.6994    0.0000 O   0  0  0  0  0  0  0  0  0  0  0  0
   23.5681   -1.3179    0.0000 H   0  0  0  0  0  0  0  0  0  0  0  0
   21.7825   -5.4404    0.0000 H   0  0  0  0  0  0  0  0  0  0  0  0
   23.4709   -7.9202    0.0000 H   0  0  0  0  0  0  0  0  0  0  0  0
   25.7314   -2.3985    0.0000 H   0  0  0  0  0  0  0  0  0  0  0  0
   32.7450   -3.8554    0.0000 H   0  0  0  0  0  0  0  0  0  0  0  0
   31.5099   -8.9026    0.0000 H   0  0  0  0  0  0  0  0  0  0  0  0
   28.5959   -8.1895    0.0000 H   0  0  0  0  0  0  0  0  0  0  0  0
   34.0042   -8.1756    0.0000 H   0  0  0  0  0  0  0  0  0  0  0  0
   24.8424   -4.5962    0.0000 H   0  0  0  0  0  0  0  0  0  0  0  0
   24.0573   -1.5411    0.0000 H   0  0  0  0  0  0  0  0  0  0  0  0
   28.9916   -0.2621    0.0000 H   0  0  0  0  0  0  0  0  0  0  0  0
   27.1149    1.5346    0.0000 H   0  0  0  0  0  0  0  0  0  0  0  0
   21.3975   -0.2585    0.0000 H   0  0  0  0  0  0  0  0  0  0  0  0
   19.6192   -3.1745    0.0000 H   0  0  0  0  0  0  0  0  0  0  0  0
   17.9676   -2.4989    0.0000 H   0  0  0  0  0  0  0  0  0  0  0  0
   19.7734    0.1353    0.0000 H   0  0  0  0  0  0  0  0  0  0  0  0
   18.0366    0.9731    0.0000 H   0  0  0  0  0  0  0  0  0  0  0  0
   16.7174    1.9990    0.0000 H   0  0  0  0  0  0  0  0  0  0  0  0
   14.7202    2.0293    0.0000 H   0  0  0  0  0  0  0  0  0  0  0  0
   14.7887   -2.4094    0.0000 H   0  0  0  0  0  0  0  0  0  0  0  0
   13.4432   -1.0281    0.0000 H   0  0  0  0  0  0  0  0  0  0  0  0
   17.8786   -1.2131    0.0000 H   0  0  0  0  0  0  0  0  0  0  0  0
   16.8897    0.0875    0.0000 H   0  0  0  0  0  0  0  0  0  0  0  0
   13.9510    3.3058    0.0000 H   0  0  0  0  0  0  0  0  0  0  0  0
   11.3460    1.3054    0.0000 H   0  0  0  0  0  0  0  0  0  0  0  0
   12.1153    5.6486    0.0000 H   0  0  0  0  0  0  0  0  0  0  0  0
   10.5213    4.5633    0.0000 H   0  0  0  0  0  0  0  0  0  0  0  0
   15.6084    5.7294    0.0000 H   0  0  0  0  0  0  0  0  0  0  0  0
   13.2684    6.8582    0.0000 H   0  0  0  0  0  0  0  0  0  0  0  0
   11.2092    0.7083    0.0000 H   0  0  0  0  0  0  0  0  0  0  0  0
   10.8448   -1.1233    0.0000 H   0  0  0  0  0  0  0  0  0  0  0  0
   10.0244   -1.9803    0.0000 H   0  0  0  0  0  0  0  0  0  0  0  0
    8.0490   -2.3375    0.0000 H   0  0  0  0  0  0  0  0  0  0  0  0
    7.1563   -1.8733    0.0000 H   0  0  0  0  0  0  0  0  0  0  0  0
    5.9994   -0.5996    0.0000 H   0  0  0  0  0  0  0  0  0  0  0  0
    7.5785    2.5719    0.0000 H   0  0  0  0  0  0  0  0  0  0  0  0
    6.2698    3.7187    0.0000 H   0  0  0  0  0  0  0  0  0  0  0  0
    4.2866    3.9576    0.0000 H   0  0  0  0  0  0  0  0  0  0  0  0
    3.8908   -0.4640    0.0000 H   0  0  0  0  0  0  0  0  0  0  0  0
    2.6970    1.0504    0.0000 H   0  0  0  0  0  0  0  0  0  0  0  0
    7.0888    0.4029    0.0000 H   0  0  0  0  0  0  0  0  0  0  0  0
    6.2413    1.7997    0.0000 H   0  0  0  0  0  0  0  0  0  0  0  0
    3.6551    5.3075    0.0000 H   0  0  0  0  0  0  0  0  0  0  0  0
    2.5348    4.0280    0.0000 H   0  0  0  0  0  0  0  0  0  0  0  0
    2.2549    2.6328    0.0000 H   0  0  0  0  0  0  0  0  0  0  0  0
    2.4354    2.0746    0.0000 H   0  0  0  0  0  0  0  0  0  0  0  0
    2.0224    1.0653    0.0000 H   0  0  0  0  0  0  0  0  0  0  0  0
    1.9728    0.9051    0.0000 H   0  0  0  0  0  0  0  0  0  0  0  0
    1.5057   -0.4392    0.0000 H   0  0  0  0  0  0  0  0  0  0  0  0
    1.2676   -0.8849    0.0000 H   0  0  0  0  0  0  0  0  0  0  0  0
    0.5713   -1.9341    0.0000 H   0  0  0  0  0  0  0  0  0  0  0  0
    0.2531   -2.3267    0.0000 H   0  0  0  0  0  0  0  0  0  0  0  0
   -0.6291   -3.2251    0.0000 H   0  0  0  0  0  0  0  0  0  0  0  0
   -1.0159   -3.5504    0.0000 H   0  0  0  0  0  0  0  0  0  0  0  0
   -2.2342   -4.2858    0.0000 H   0  0  0  0  0  0  0  0  0  0  0  0
   -3.0143   -4.8918    0.0000 H   0  0  0  0  0  0  0  0  0  0  0  0
    3.5681    5.7976    0.0000 H   0  0  0  0  0  0  0  0  0  0  0  0
    2.9591    7.3137    0.0000 H   0  0  0  0  0  0  0  0  0  0  0  0
    1.1752    7.2707    0.0000 H   0  0  0  0  0  0  0  0  0  0  0  0
    1.2712    8.5050    0.0000 H   0  0  0  0  0  0  0  0  0  0  0  0
    0.4970    9.1703    0.0000 H   0  0  0  0  0  0  0  0  0  0  0  0
   -2.0163   11.0106    0.0000 H   0  0  0  0  0  0  0  0  0  0  0  0
    1.4436   12.2809    0.0000 H   0  0  0  0  0  0  0  0  0  0  0  0
    2.3435   10.7502    0.0000 H   0  0  0  0  0  0  0  0  0  0  0  0
    1.3289    9.4695    0.0000 H   0  0  0  0  0  0  0  0  0  0  0  0
   -1.3467   13.3715    0.0000 H   0  0  0  0  0  0  0  0  0  0  0  0
   -2.2088   11.8091    0.0000 H   0  0  0  0  0  0  0  0  0  0  0  0
    0.3919   14.3549    0.0000 H   0  0  0  0  0  0  0  0  0  0  0  0
    1.9640   13.2382    0.0000 H   0  0  0  0  0  0  0  0  0  0  0  0
    1.4487   11.6877    0.0000 H   0  0  0  0  0  0  0  0  0  0  0  0
   -2.7632   12.1894    0.0000 H   0  0  0  0  0  0  0  0  0  0  0  0
   -3.6138   12.2421    0.0000 H   0  0  0  0  0  0  0  0  0  0  0  0
   -6.1733   13.9700    0.0000 H   0  0  0  0  0  0  0  0  0  0  0  0
   -6.7231   12.4314    0.0000 H   0  0  0  0  0  0  0  0  0  0  0  0
   -3.0757   12.9435    0.0000 H   0  0  0  0  0  0  0  0  0  0  0  0
   -3.8197   16.5311    0.0000 H   0  0  0  0  0  0  0  0  0  0  0  0
   -5.6039   16.5049    0.0000 H   0  0  0  0  0  0  0  0  0  0  0  0
   -6.1006   14.7910    0.0000 H   0  0  0  0  0  0  0  0  0  0  0  0
   -2.6628   16.0481    0.0000 H   0  0  0  0  0  0  0  0  0  0  0  0
   -1.4269   14.7610    0.0000 H   0  0  0  0  0  0  0  0  0  0  0  0
   -2.4675   13.1376    0.0000 H   0  0  0  0  0  0  0  0  0  0  0  0
   -7.9887   13.0192    0.0000 H   0  0  0  0  0  0  0  0  0  0  0  0
   -8.9079   12.6575    0.0000 H   0  0  0  0  0  0  0  0  0  0  0  0
  -11.7473   12.8417    0.0000 H   0  0  0  0  0  0  0  0  0  0  0  0
  -11.4508   11.0820    0.0000 H   0  0  0  0  0  0  0  0  0  0  0  0
  -12.6862   11.0014    0.0000 H   0  0  0  0  0  0  0  0  0  0  0  0
  -13.2347   10.1404    0.0000 H   0  0  0  0  0  0  0  0  0  0  0  0
  -15.8993    8.7108    0.0000 H   0  0  0  0  0  0  0  0  0  0  0  0
  -14.6985    7.3908    0.0000 H   0  0  0  0  0  0  0  0  0  0  0  0
  -15.0612   11.7433    0.0000 H   0  0  0  0  0  0  0  0  0  0  0  0
  -13.6492   10.9213    0.0000 H   0  0  0  0  0  0  0  0  0  0  0  0
  -15.7590    6.4837    0.0000 H   0  0  0  0  0  0  0  0  0  0  0  0
  -15.8118    5.4973    0.0000 H   0  0  0  0  0  0  0  0  0  0  0  0
  -17.1588    2.9910    0.0000 H   0  0  0  0  0  0  0  0  0  0  0  0
  -15.4350    2.5297    0.0000 H   0  0  0  0  0  0  0  0  0  0  0  0
  -19.0610    2.8347    0.0000 H   0  0  0  0  0  0  0  0  0  0  0  0
  -21.0486    5.4229    0.0000 H   0  0  0  0  0  0  0  0  0  0  0  0
  -19.2012    8.1131    0.0000 H   0  0  0  0  0  0  0  0  0  0  0  0
  -15.8749    1.3725    0.0000 H   0  0  0  0  0  0  0  0  0  0  0  0
  -15.3195    0.5159    0.0000 H   0  0  0  0  0  0  0  0  0  0  0  0
  -15.1261   -2.5018    0.0000 H   0  0  0  0  0  0  0  0  0  0  0  0
  -13.4265   -1.9579    0.0000 H   0  0  0  0  0  0  0  0  0  0  0  0
  -16.9325   -2.3111    0.0000 H   0  0  0  0  0  0  0  0  0  0  0  0
  -17.5363   -0.4797    0.0000 H   0  0  0  0  0  0  0  0  0  0  0  0
  -16.2021    0.4633    0.0000 H   0  0  0  0  0  0  0  0  0  0  0  0
  -13.1709   -3.1692    0.0000 H   0  0  0  0  0  0  0  0  0  0  0  0
   -9.1701   -5.1791    0.0000 H   0  0  0  0  0  0  0  0  0  0  0  0
  -10.3973   -4.8974    0.0000 H   0  0  0  0  0  0  0  0  0  0  0  0
   -7.6184   -5.5297    0.0000 H   0  0  0  0  0  0  0  0  0  0  0  0
   -8.7039   -5.4247    0.0000 H   0  0  0  0  0  0  0  0  0  0  0  0
   -5.6972   -5.4276    0.0000 H   0  0  0  0  0  0  0  0  0  0  0  0
   -7.1140   -5.5612    0.0000 H   0  0  0  0  0  0  0  0  0  0  0  0
   -4.7097   -5.4508    0.0000 H   0  0  0  0  0  0  0  0  0  0  0  0
  -12.5967   -5.1941    0.0000 H   0  0  0  0  0  0  0  0  0  0  0  0
  -13.6543   -3.9487    0.0000 H   0  0  0  0  0  0  0  0  0  0  0  0
  -12.9468   -2.4760    0.0000 H   0  0  0  0  0  0  0  0  0  0  0  0
  -13.4852   -4.7775    0.0000 H   0  0  0  0  0  0  0  0  0  0  0  0
  -10.5966   -6.5542    0.0000 H   0  0  0  0  0  0  0  0  0  0  0  0
  -10.4178   -9.2445    0.0000 H   0  0  0  0  0  0  0  0  0  0  0  0
  -10.2461   -7.4683    0.0000 H   0  0  0  0  0  0  0  0  0  0  0  0
  -13.7627  -10.1777    0.0000 H   0  0  0  0  0  0  0  0  0  0  0  0
  -13.8768   -8.8677    0.0000 H   0  0  0  0  0  0  0  0  0  0  0  0
  -10.9560  -11.9388    0.0000 H   0  0  0  0  0  0  0  0  0  0  0  0
  -10.5691  -10.1968    0.0000 H   0  0  0  0  0  0  0  0  0  0  0  0
  -14.3785  -12.1018    0.0000 H   0  0  0  0  0  0  0  0  0  0  0  0
  -12.7547  -15.9381    0.0000 H   0  0  0  0  0  0  0  0  0  0  0  0
  -14.7494  -14.1390    0.0000 H   0  0  0  0  0  0  0  0  0  0  0  0
  -10.3288  -15.0081    0.0000 H   0  0  0  0  0  0  0  0  0  0  0  0
   -9.9213  -12.4422    0.0000 H   0  0  0  0  0  0  0  0  0  0  0  0
  -12.2331  -10.1351    0.0000 H   0  0  0  0  0  0  0  0  0  0  0  0
  -14.9780   -8.4280    0.0000 H   0  0  0  0  0  0  0  0  0  0  0  0
  -17.4589  -10.7787    0.0000 H   0  0  0  0  0  0  0  0  0  0  0  0
  -15.9062  -11.6581    0.0000 H   0  0  0  0  0  0  0  0  0  0  0  0
  -18.5445   -9.3223    0.0000 H   0  0  0  0  0  0  0  0  0  0  0  0
  -17.6089   -7.6361    0.0000 H   0  0  0  0  0  0  0  0  0  0  0  0
  -15.8895   -8.1137    0.0000 H   0  0  0  0  0  0  0  0  0  0  0  0
  -17.2668  -11.5929    0.0000 H   0  0  0  0  0  0  0  0  0  0  0  0
  -14.3781  -13.3696    0.0000 H   0  0  0  0  0  0  0  0  0  0  0  0
  -14.3301  -16.1883    0.0000 H   0  0  0  0  0  0  0  0  0  0  0  0
  -14.2527  -13.9955    0.0000 H   0  0  0  0  0  0  0  0  0  0  0  0
  -17.6288  -16.8306    0.0000 H   0  0  0  0  0  0  0  0  0  0  0  0
  -17.5824  -15.5164    0.0000 H   0  0  0  0  0  0  0  0  0  0  0  0
  -16.1287  -20.1876    0.0000 H   0  0  0  0  0  0  0  0  0  0  0  0
  -17.9518  -19.5590    0.0000 H   0  0  0  0  0  0  0  0  0  0  0  0
  -17.7800  -17.7829    0.0000 H   0  0  0  0  0  0  0  0  0  0  0  0
  1  2  1  0
  2  3  1  0
  3  4  2  0
  4  5  1  0
  5  6  2  0
  6  7  1  0
  7  8  2  0
  7  9  1  0
  9 10  1  0
 10 11  1  0
 11 12  2  0
  9 13  1  0
 13 14  1  0
 14 15  2  0
 15 16  1  0
 16 17  2  0
 17 18  1  0
 16 19  1  0
 14 20  1  0
 20 21  1  0
 21 22  2  0
 22 23  1  0
 23 24  2  0
 24 25  1  0
 25 26  2  0
 25 27  1  0
  1 28  2  0
  1 29  1  0
 29 30  1  0
 30 31  1  0
 31 32  1  0
 32 33  2  0
 32 34  1  0
 34 35  1  0
 35 36  1  0
 36 37  1  0
 37 38  1  0
 38 39  2  0
 38 40  1  0
 35 41  1  0
 41 42  2  0
 41 43  1  0
 43 44  1  0
 44 45  1  0
 45 46  1  0
 46 47  1  0
 46 48  2  0
 44 49  1  0
 49 50  2  0
 49 51  1  0
 51 52  1  0
 52 53  1  0
 53 54  1  0
 54 55  1  0
 55 56  1  0
 56 57  2  0
 56 58  1  0
 58 59  1  0
 59 60  1  0
 60 61  1  0
 61 62  1  0
 62 63  2  0
 62 64  1  0
 59 65  1  0
 65 66  2  0
 65 67  1  0
 68 67  1  6
 68 69  1  0
 69 70  1  0
 70 71  1  0
 71 72  1  0
 72 73  1  0
 73 74  1  0
 74 75  1  0
 68 76  1  0
 68 77  1  0
 77 78  2  0
 77 79  1  0
 79 80  1  0
 80 81  1  0
 81 82  1  0
 81 83  1  0
 83 84  1  0
 80 85  1  0
 85 86  2  0
 85 87  1  0
 87 88  1  0
 88 89  1  0
 89 90  1  0
 90 91  1  0
 90 92  1  0
 88 93  1  0
 93 94  2  0
 93 95  1  0
 95 96  1  0
 96 97  1  0
 97 98  1  0
 98 99  2  0
 98100  1  0
 96101  1  0
101102  2  0
101103  1  0
103104  1  0
104105  1  0
105106  1  0
106107  1  0
107108  2  0
107109  1  0
104110  1  0
110111  2  0
110112  1  0
112113  1  0
113114  1  0
114115  1  0
115116  2  0
116117  1  0
117118  1  0
118119  2  0
113120  1  0
120121  2  0
120122  1  0
122123  1  0
123124  1  0
124125  1  0
123126  1  0
126127  2  0
126128  1  0
128129  1  0
129130  1  0
130131  1  0
131132  1  0
132133  1  0
129134  1  0
129135  1  1
135136  2  0
135137  1  0
137138  1  0
138139  1  0
139140  1  0
140141  1  0
141142  1  0
142143  1  0
143144  2  3
143145  1  0
138146  1  0
146147  2  0
146148  1  0
148149  1  0
149150  1  0
150151  1  0
149152  1  0
152153  2  0
152154  1  0
154155  1  0
155156  1  0
156157  1  0
157158  1  0
158159  1  0
155160  1  0
160161  2  0
160162  1  0
  8  3  1  0
 55 51  1  0
119115  1  0
 11  6  1  0
 18 13  2  0
 75133  2  0
 22  9  1  0
 26 21  1  0
  2163  1  0
  4164  1  0
  5165  1  0
  8166  1  0
 15167  1  0
 17168  1  0
 18169  1  0
 19170  1  0
 23171  1  0
 24172  1  0
 26173  1  0
 27174  1  0
 29175  1  0
 30176  1  0
 30177  1  0
 31178  1  0
 31179  1  0
 34180  1  0
 35181  1  1
 36182  1  0
 36183  1  0
 37184  1  0
 37185  1  0
 43186  1  0
 44187  1  6
 45188  1  0
 45189  1  0
 47190  1  0
 47191  1  0
 52192  1  0
 52193  1  0
 53194  1  0
 53195  1  0
 54196  1  0
 54197  1  0
 55198  1  0
 58199  1  0
 59200  1  1
 60201  1  0
 60202  1  0
 61203  1  0
 61204  1  0
 67205  1  0
 69206  1  0
 69207  1  0
 70208  1  0
 70209  1  0
 71210  1  0
 71211  1  0
 72212  1  0
 72213  1  0
 73214  1  0
 73215  1  0
 74216  1  0
 74217  1  0
 75218  1  0
 76219  1  0
 76220  1  0
 76221  1  0
 79222  1  0
 80223  1  6
 81224  1  1
 82225  1  0
 82226  1  0
 82227  1  0
 83228  1  0
 83229  1  0
 84230  1  0
 84231  1  0
 84232  1  0
 87233  1  0
 88234  1  6
 89235  1  0
 89236  1  0
 90237  1  0
 91238  1  0
 91239  1  0
 91240  1  0
 92241  1  0
 92242  1  0
 92243  1  0
 95244  1  0
 96245  1  6
 97246  1  0
 97247  1  0
103248  1  0
104249  1  6
105250  1  0
105251  1  0
106252  1  0
106253  1  0
112254  1  0
113255  1  6
114256  1  0
114257  1  0
116258  1  0
117259  1  0
118260  1  0
122261  1  0
123262  1  6
124263  1  0
124264  1  0
125265  1  0
125266  1  0
125267  1  0
128268  1  0
130269  1  0
130270  1  0
131271  1  0
131272  1  0
132273  1  0
132274  1  0
133275  1  0
134276  1  0
134277  1  0
134278  1  0
137279  1  0
138280  1  1
139281  1  0
139282  1  0
140283  1  0
140284  1  0
141285  1  0
141286  1  0
142287  1  0
144288  1  0
144289  1  0
145290  1  0
145291  1  0
148292  1  0
149293  1  6
150294  1  0
150295  1  0
151296  1  0
151297  1  0
151298  1  0
154299  1  0
155300  1  1
156301  1  0
156302  1  0
157303  1  0
157304  1  0
159305  1  0
159306  1  0
159307  1  0
M  CHG  6  40  -1  64  -1 100  -1 109  -1 144   1 162  -1
M  END
