
     RDKit          2D

313320  0  0  0  0  0  0  0  0999 V2000
   24.9844   -1.5007    0.0000 C   0  0  0  0  0  0  0  0  0  0  0  0
   26.2828   -2.2517    0.0000 N   0  0  0  0  0  0  0  0  0  0  0  0
   27.5824   -1.5026    0.0000 C   0  0  0  0  0  0  0  0  0  0  0  0
   27.5835   -0.0026    0.0000 C   0  0  0  0  0  0  0  0  0  0  0  0
   28.8831    0.7464    0.0000 C   0  0  0  0  0  0  0  0  0  0  0  0
   30.1816   -0.0046    0.0000 C   0  0  0  0  0  0  0  0  0  0  0  0
   30.1805   -1.5046    0.0000 C   0  0  0  0  0  0  0  0  0  0  0  0
   28.8809   -2.2536    0.0000 C   0  0  0  0  0  0  0  0  0  0  0  0
   31.6067   -1.9692    0.0000 C   0  0  0  0  0  0  0  0  0  0  0  0
   32.4893   -0.7563    0.0000 O   0  0  0  0  0  0  0  0  0  0  0  0
   31.6086    0.4579    0.0000 C   0  0  0  0  0  0  0  0  0  0  0  0
   32.0732    1.8841    0.0000 O   0  0  0  0  0  0  0  0  0  0  0  0
   33.0737   -2.2821    0.0000 C   0  0  0  0  0  0  0  0  0  0  0  0
   33.5362   -3.7091    0.0000 C   0  0  0  0  0  0  0  0  0  0  0  0
   35.0032   -4.0220    0.0000 C   0  0  0  0  0  0  0  0  0  0  0  0
   36.0077   -2.9081    0.0000 C   0  0  0  0  0  0  0  0  0  0  0  0
   35.5452   -1.4811    0.0000 C   0  0  0  0  0  0  0  0  0  0  0  0
   34.0783   -1.1682    0.0000 C   0  0  0  0  0  0  0  0  0  0  0  0
   37.4747   -3.2210    0.0000 O   0  0  0  0  0  0  0  0  0  0  0  0
   32.5317   -4.8230    0.0000 O   0  0  0  0  0  0  0  0  0  0  0  0
   31.0647   -4.5101    0.0000 C   0  0  0  0  0  0  0  0  0  0  0  0
   30.6022   -3.0831    0.0000 C   0  0  0  0  0  0  0  0  0  0  0  0
   29.3510   -3.4361    0.0000 C   0  0  0  0  0  0  0  0  0  0  0  0
   28.8153   -4.0302    0.0000 C   0  0  0  0  0  0  0  0  0  0  0  0
   29.0619   -4.7912    0.0000 C   0  0  0  0  0  0  0  0  0  0  0  0
   29.8443   -4.9581    0.0000 C   0  0  0  0  0  0  0  0  0  0  0  0
   27.5886   -6.4250    0.0000 O   0  0  0  0  0  0  0  0  0  0  0  0
   24.9855   -0.0007    0.0000 S   0  0  0  0  0  0  0  0  0  0  0  0
   23.6848   -2.2497    0.0000 N   0  0  0  0  0  0  0  0  0  0  0  0
   22.3863   -1.4987    0.0000 C   0  0  0  0  0  0  0  0  0  0  0  0
   21.0867   -2.2478    0.0000 C   0  0  0  0  0  0  0  0  0  0  0  0
   19.7882   -1.4968    0.0000 O   0  0  0  0  0  0  0  0  0  0  0  0
   18.4886   -2.2458    0.0000 C   0  0  0  0  0  0  0  0  0  0  0  0
   17.1901   -1.4948    0.0000 C   0  0  0  0  0  0  0  0  0  0  0  0
   15.8905   -2.2439    0.0000 O   0  0  0  0  0  0  0  0  0  0  0  0
   14.5920   -1.4929    0.0000 C   0  0  0  0  0  0  0  0  0  0  0  0
   13.2924   -2.2419    0.0000 C   0  0  0  0  0  0  0  0  0  0  0  0
   13.4848   -3.0155    0.0000 O   0  0  0  0  0  0  0  0  0  0  0  0
   11.9940   -1.4909    0.0000 N   0  0  0  0  0  0  0  0  0  0  0  0
   10.6944   -2.2400    0.0000 C   0  0  0  0  0  0  0  0  0  0  0  0
   11.6577   -3.3898    0.0000 C   0  0  0  0  0  0  0  0  0  0  0  0
   13.1351   -3.1304    0.0000 C   0  0  0  0  0  0  0  0  0  0  0  0
   14.0984   -4.2802    0.0000 N   0  0  0  0  0  0  0  0  0  0  0  0
   13.9749   -1.8875    0.0000 O   0  0  0  0  0  0  0  0  0  0  0  0
    9.2170   -2.4993    0.0000 C   0  0  0  0  0  0  0  0  0  0  0  0
    9.0591   -3.9910    0.0000 O   0  0  0  0  0  0  0  0  0  0  0  0
    8.2536   -1.3495    0.0000 N   0  0  0  0  0  0  0  0  0  0  0  0
    6.7762   -1.6089    0.0000 C   0  0  0  0  0  0  0  0  0  0  0  0
    7.2882   -3.0188    0.0000 C   0  0  0  0  0  0  0  0  0  0  0  0
    8.7652   -3.2804    0.0000 C   0  0  0  0  0  0  0  0  0  0  0  0
    9.2772   -4.6903    0.0000 C   0  0  0  0  0  0  0  0  0  0  0  0
   10.7113   -5.1300    0.0000 N   0  0  0  0  0  0  0  0  0  0  0  0
    8.3122   -5.8387    0.0000 O   0  0  0  0  0  0  0  0  0  0  0  0
    5.2992   -1.3473    0.0000 C   0  0  0  0  0  0  0  0  0  0  0  0
    4.6407   -2.6951    0.0000 O   0  0  0  0  0  0  0  0  0  0  0  0
    4.7873    0.0626    0.0000 N   0  0  0  0  0  0  0  0  0  0  0  0
    3.3102    0.3242    0.0000 C   0  0  0  0  0  0  0  0  0  0  0  0
    3.3091   -1.1758    0.0000 C   0  0  0  0  0  0  0  0  0  0  0  0
    4.6076   -1.9268    0.0000 C   0  0  0  0  0  0  0  0  0  0  0  0
    4.6065   -3.4268    0.0000 C   0  0  0  0  0  0  0  0  0  0  0  0
    6.0846   -2.1884    0.0000 C   0  0  0  0  0  0  0  0  0  0  0  0
    2.0118    1.0751    0.0000 C   0  0  0  0  0  0  0  0  0  0  0  0
    0.9320    0.0339    0.0000 O   0  0  0  0  0  0  0  0  0  0  0  0
    2.0129    2.5751    0.0000 N   0  0  0  0  0  0  0  0  0  0  0  0
    0.7144    3.3261    0.0000 C   0  0  0  0  0  0  0  0  0  0  0  0
    0.6181    1.8292    0.0000 C   0  0  0  0  0  0  0  0  0  0  0  0
    0.2403    0.3776    0.0000 C   0  0  0  0  0  0  0  0  0  0  0  0
   -0.4054   -0.9763    0.0000 C   0  0  0  0  0  0  0  0  0  0  0  0
   -1.2956   -2.1836    0.0000 C   0  0  0  0  0  0  0  0  0  0  0  0
   -2.3983   -3.2005    0.0000 C   0  0  0  0  0  0  0  0  0  0  0  0
   -3.6735   -3.9904    0.0000 C   0  0  0  0  0  0  0  0  0  0  0  0
   -5.0751   -4.5247    0.0000 C   0  0  0  0  0  0  0  0  0  0  0  0
    1.9639    4.1561    0.0000 C   0  0  0  0  0  0  0  0  0  0  0  0
    0.5256    4.8142    0.0000 C   0  0  0  0  0  0  0  0  0  0  0  0
    1.9380    5.3195    0.0000 O   0  0  0  0  0  0  0  0  0  0  0  0
    0.0587    6.2396    0.0000 N   0  0  0  0  0  0  0  0  0  0  0  0
   -0.6697    7.5510    0.0000 C   0  0  0  0  0  0  0  0  0  0  0  0
   -0.0672    8.9247    0.0000 C   0  0  0  0  0  0  0  0  0  0  0  0
    1.4236    9.0898    0.0000 C   0  0  0  0  0  0  0  0  0  0  0  0
    2.0261   10.4635    0.0000 C   0  0  0  0  0  0  0  0  0  0  0  0
    3.5170   10.6287    0.0000 N   0  0  0  0  0  0  0  0  0  0  0  0
    4.1194   12.0024    0.0000 C   0  0  0  0  0  0  0  0  0  0  0  0
    5.6103   12.1675    0.0000 N   0  0  0  0  0  0  0  0  0  0  0  0
    3.2309   13.2110    0.0000 N   0  0  0  0  0  0  0  0  0  0  0  0
   -1.6330    8.7008    0.0000 C   0  0  0  0  0  0  0  0  0  0  0  0
   -0.7180    9.8894    0.0000 O   0  0  0  0  0  0  0  0  0  0  0  0
   -2.7965    9.6475    0.0000 N   0  0  0  0  0  0  0  0  0  0  0  0
   -4.1181   10.3569    0.0000 C   0  0  0  0  0  0  0  0  0  0  0  0
   -4.3540   11.8382    0.0000 C   0  0  0  0  0  0  0  0  0  0  0  0
   -3.1891   12.7831    0.0000 O   0  0  0  0  0  0  0  0  0  0  0  0
   -5.5502   10.8033    0.0000 C   0  0  0  0  0  0  0  0  0  0  0  0
   -5.4231   12.2979    0.0000 O   0  0  0  0  0  0  0  0  0  0  0  0
   -7.0408   10.9707    0.0000 N   0  0  0  0  0  0  0  0  0  0  0  0
   -8.5362   10.8529    0.0000 C   0  0  0  0  0  0  0  0  0  0  0  0
   -9.5355   11.9716    0.0000 C   0  0  0  0  0  0  0  0  0  0  0  0
   -9.0664   13.3963    0.0000 C   0  0  0  0  0  0  0  0  0  0  0  0
   -7.5979   13.7024    0.0000 C   0  0  0  0  0  0  0  0  0  0  0  0
   -7.1288   15.1272    0.0000 C   0  0  0  0  0  0  0  0  0  0  0  0
   -8.1281   16.2458    0.0000 C   0  0  0  0  0  0  0  0  0  0  0  0
   -9.5966   15.9397    0.0000 C   0  0  0  0  0  0  0  0  0  0  0  0
  -10.0657   14.5150    0.0000 C   0  0  0  0  0  0  0  0  0  0  0  0
   -9.9822   10.4543    0.0000 C   0  0  0  0  0  0  0  0  0  0  0  0
  -10.6834   11.7803    0.0000 O   0  0  0  0  0  0  0  0  0  0  0  0
  -11.3267    9.7892    0.0000 N   0  0  0  0  0  0  0  0  0  0  0  0
  -12.5210    8.8817    0.0000 C   0  0  0  0  0  0  0  0  0  0  0  0
  -13.9665    9.2825    0.0000 C   0  0  0  0  0  0  0  0  0  0  0  0
  -14.3421   10.7347    0.0000 C   0  0  0  0  0  0  0  0  0  0  0  0
  -13.2723   11.7861    0.0000 C   0  0  0  0  0  0  0  0  0  0  0  0
  -13.6479   13.2383    0.0000 C   0  0  0  0  0  0  0  0  0  0  0  0
  -15.0934   13.6391    0.0000 C   0  0  0  0  0  0  0  0  0  0  0  0
  -16.1632   12.5877    0.0000 C   0  0  0  0  0  0  0  0  0  0  0  0
  -15.7876   11.1355    0.0000 C   0  0  0  0  0  0  0  0  0  0  0  0
  -13.5220    7.7645    0.0000 C   0  0  0  0  0  0  0  0  0  0  0  0
  -14.8288    8.5010    0.0000 O   0  0  0  0  0  0  0  0  0  0  0  0
  -14.2935    6.4781    0.0000 N   0  0  0  0  0  0  0  0  0  0  0  0
  -14.8076    5.0690    0.0000 C   0  0  0  0  0  0  0  0  0  0  0  0
  -16.2403    4.6247    0.0000 C   0  0  0  0  0  0  0  0  0  0  0  0
  -15.0457    3.5880    0.0000 C   0  0  0  0  0  0  0  0  0  0  0  0
  -16.5432    3.5011    0.0000 O   0  0  0  0  0  0  0  0  0  0  0  0
  -14.9992    2.0887    0.0000 N   0  0  0  0  0  0  0  0  0  0  0  0
  -14.6699    0.6253    0.0000 C   0  0  0  0  0  0  0  0  0  0  0  0
  -15.6349   -0.5230    0.0000 C   0  0  0  0  0  0  0  0  0  0  0  0
  -17.1119   -0.2614    0.0000 C   0  0  0  0  0  0  0  0  0  0  0  0
  -18.0770   -1.4098    0.0000 C   0  0  0  0  0  0  0  0  0  0  0  0
  -18.4104    0.4895    0.0000 C   0  0  0  0  0  0  0  0  0  0  0  0
  -14.0695   -0.7493    0.0000 C   0  0  0  0  0  0  0  0  0  0  0  0
  -15.2823   -1.6320    0.0000 O   0  0  0  0  0  0  0  0  0  0  0  0
  -13.2198   -1.9854    0.0000 N   0  0  0  0  0  0  0  0  0  0  0  0
  -12.1516   -3.0384    0.0000 C   0  0  0  0  0  0  0  0  0  0  0  0
  -10.9034   -3.8703    0.0000 C   0  0  0  0  0  0  0  0  0  0  0  0
   -9.5203   -4.4508    0.0000 C   0  0  0  0  0  0  0  0  0  0  0  0
   -8.0523   -4.7591    0.0000 C   0  0  0  0  0  0  0  0  0  0  0  0
   -6.5525   -4.7840    0.0000 C   0  0  0  0  0  0  0  0  0  0  0  0
  -13.5695   -3.5280    0.0000 C   0  0  0  0  0  0  0  0  0  0  0  0
  -12.3426   -4.5262    0.0000 C   0  0  0  0  0  0  0  0  0  0  0  0
  -11.4051   -5.6972    0.0000 O   0  0  0  0  0  0  0  0  0  0  0  0
  -13.7266   -5.1047    0.0000 N   0  0  0  0  0  0  0  0  0  0  0  0
  -13.9176   -6.5925    0.0000 C   0  0  0  0  0  0  0  0  0  0  0  0
  -13.5882   -8.0559    0.0000 C   0  0  0  0  0  0  0  0  0  0  0  0
  -14.6908   -9.0728    0.0000 C   0  0  0  0  0  0  0  0  0  0  0  0
  -14.3615  -10.5362    0.0000 O   0  0  0  0  0  0  0  0  0  0  0  0
  -16.1883   -8.9862    0.0000 O   0  0  0  0  0  0  0  0  0  0  0  0
  -15.3015   -7.1710    0.0000 C   0  0  0  0  0  0  0  0  0  0  0  0
  -16.4945   -6.2617    0.0000 O   0  0  0  0  0  0  0  0  0  0  0  0
  -15.4925   -8.6588    0.0000 N   0  0  0  0  0  0  0  0  0  0  0  0
  -16.8765   -9.2372    0.0000 C   0  0  0  0  0  0  0  0  0  0  0  0
  -18.3749   -9.3075    0.0000 C   0  0  0  0  0  0  0  0  0  0  0  0
  -19.0632  -10.6402    0.0000 C   0  0  0  0  0  0  0  0  0  0  0  0
  -20.5615  -10.7105    0.0000 C   0  0  0  0  0  0  0  0  0  0  0  0
  -21.4072  -11.9494    0.0000 N   0  0  0  0  0  0  0  0  0  0  0  0
  -21.3716   -9.4480    0.0000 O   0  0  0  0  0  0  0  0  0  0  0  0
  -17.0675  -10.7250    0.0000 C   0  0  0  0  0  0  0  0  0  0  0  0
  -15.8745  -11.6343    0.0000 O   0  0  0  0  0  0  0  0  0  0  0  0
  -18.4515  -11.3035    0.0000 N   0  0  0  0  0  0  0  0  0  0  0  0
  -18.6425  -12.7913    0.0000 C   0  0  0  0  0  0  0  0  0  0  0  0
  -18.3131  -14.2547    0.0000 C   0  0  0  0  0  0  0  0  0  0  0  0
  -19.4158  -15.2716    0.0000 C   0  0  0  0  0  0  0  0  0  0  0  0
  -17.5031  -15.5172    0.0000 C   0  0  0  0  0  0  0  0  0  0  0  0
  -16.0047  -15.4469    0.0000 C   0  0  0  0  0  0  0  0  0  0  0  0
  -20.0264  -13.3698    0.0000 C   0  0  0  0  0  0  0  0  0  0  0  0
  -20.3974  -14.8232    0.0000 O   0  0  0  0  0  0  0  0  0  0  0  0
  -21.3213  -12.6127    0.0000 O   0  0  0  0  0  0  0  0  0  0  0  0
   26.0989   -3.7403    0.0000 H   0  0  0  0  0  0  0  0  0  0  0  0
   26.2851    0.7483    0.0000 H   0  0  0  0  0  0  0  0  0  0  0  0
   28.8843    2.2464    0.0000 H   0  0  0  0  0  0  0  0  0  0  0  0
   28.5168   -3.7088    0.0000 H   0  0  0  0  0  0  0  0  0  0  0  0
   35.4656   -5.4490    0.0000 H   0  0  0  0  0  0  0  0  0  0  0  0
   36.5498   -0.3672    0.0000 H   0  0  0  0  0  0  0  0  0  0  0  0
   33.6158    0.2588    0.0000 H   0  0  0  0  0  0  0  0  0  0  0  0
   38.4792   -2.1071    0.0000 H   0  0  0  0  0  0  0  0  0  0  0  0
   28.6728   -1.3432    0.0000 H   0  0  0  0  0  0  0  0  0  0  0  0
   26.6365   -3.7523    0.0000 H   0  0  0  0  0  0  0  0  0  0  0  0
   30.5226   -7.0510    0.0000 H   0  0  0  0  0  0  0  0  0  0  0  0
   28.0511   -7.8520    0.0000 H   0  0  0  0  0  0  0  0  0  0  0  0
   23.6836   -3.7497    0.0000 H   0  0  0  0  0  0  0  0  0  0  0  0
   23.3513   -0.3504    0.0000 H   0  0  0  0  0  0  0  0  0  0  0  0
   21.4230   -0.3489    0.0000 H   0  0  0  0  0  0  0  0  0  0  0  0
   22.0500   -3.3976    0.0000 H   0  0  0  0  0  0  0  0  0  0  0  0
   20.2688   -3.5052    0.0000 H   0  0  0  0  0  0  0  0  0  0  0  0
   19.3046   -3.5045    0.0000 H   0  0  0  0  0  0  0  0  0  0  0  0
   17.5236   -3.3942    0.0000 H   0  0  0  0  0  0  0  0  0  0  0  0
   18.1552   -0.3465    0.0000 H   0  0  0  0  0  0  0  0  0  0  0  0
   16.3741   -0.2362    0.0000 H   0  0  0  0  0  0  0  0  0  0  0  0
   15.4099   -0.2355    0.0000 H   0  0  0  0  0  0  0  0  0  0  0  0
   13.6287   -0.3431    0.0000 H   0  0  0  0  0  0  0  0  0  0  0  0
   11.9951    0.0091    0.0000 H   0  0  0  0  0  0  0  0  0  0  0  0
   10.1824   -0.8300    0.0000 H   0  0  0  0  0  0  0  0  0  0  0  0
   12.1697   -4.7997    0.0000 H   0  0  0  0  0  0  0  0  0  0  0  0
   10.4591   -4.2916    0.0000 H   0  0  0  0  0  0  0  0  0  0  0  0
   15.5758   -4.0208    0.0000 H   0  0  0  0  0  0  0  0  0  0  0  0
   13.5843   -5.6893    0.0000 H   0  0  0  0  0  0  0  0  0  0  0  0
    8.7677    0.0596    0.0000 H   0  0  0  0  0  0  0  0  0  0  0  0
    6.9602   -0.1202    0.0000 H   0  0  0  0  0  0  0  0  0  0  0  0
    7.2871   -4.5188    0.0000 H   0  0  0  0  0  0  0  0  0  0  0  0
    5.9175   -3.6280    0.0000 H   0  0  0  0  0  0  0  0  0  0  0  0
   10.2426   -3.0211    0.0000 H   0  0  0  0  0  0  0  0  0  0  0  0
    9.1293   -1.8253    0.0000 H   0  0  0  0  0  0  0  0  0  0  0  0
   11.2662   -6.3618    0.0000 H   0  0  0  0  0  0  0  0  0  0  0  0
   12.0103   -4.0869    0.0000 H   0  0  0  0  0  0  0  0  0  0  0  0
    5.7523    1.2109    0.0000 H   0  0  0  0  0  0  0  0  0  0  0  0
    3.8243    1.7333    0.0000 H   0  0  0  0  0  0  0  0  0  0  0  0
    2.6271   -2.5118    0.0000 H   0  0  0  0  0  0  0  0  0  0  0  0
    1.8321   -0.9143    0.0000 H   0  0  0  0  0  0  0  0  0  0  0  0
    5.4474   -0.6839    0.0000 H   0  0  0  0  0  0  0  0  0  0  0  0
    5.6846   -4.4697    0.0000 H   0  0  0  0  0  0  0  0  0  0  0  0
    4.0924   -4.8360    0.0000 H   0  0  0  0  0  0  0  0  0  0  0  0
    3.1086   -3.3472    0.0000 H   0  0  0  0  0  0  0  0  0  0  0  0
    6.5966   -3.5983    0.0000 H   0  0  0  0  0  0  0  0  0  0  0  0
    7.5809   -2.2942    0.0000 H   0  0  0  0  0  0  0  0  0  0  0  0
    5.9029   -0.6994    0.0000 H   0  0  0  0  0  0  0  0  0  0  0  0
    3.3941    3.1602    0.0000 H   0  0  0  0  0  0  0  0  0  0  0  0
    2.1010    2.0556    0.0000 H   0  0  0  0  0  0  0  0  0  0  0  0
    1.6227    0.7153    0.0000 H   0  0  0  0  0  0  0  0  0  0  0  0
    1.7209    0.1370    0.0000 H   0  0  0  0  0  0  0  0  0  0  0  0
    1.1667   -0.8022    0.0000 H   0  0  0  0  0  0  0  0  0  0  0  0
    1.0945   -0.9537    0.0000 H   0  0  0  0  0  0  0  0  0  0  0  0
    0.4384   -2.2165    0.0000 H   0  0  0  0  0  0  0  0  0  0  0  0
    0.1385   -2.6232    0.0000 H   0  0  0  0  0  0  0  0  0  0  0  0
   -0.7018   -3.5610    0.0000 H   0  0  0  0  0  0  0  0  0  0  0  0
   -1.0733   -3.9037    0.0000 H   0  0  0  0  0  0  0  0  0  0  0  0
   -2.0758   -4.6655    0.0000 H   0  0  0  0  0  0  0  0  0  0  0  0
   -2.5055   -4.9316    0.0000 H   0  0  0  0  0  0  0  0  0  0  0  0
   -3.8172   -5.4835    0.0000 H   0  0  0  0  0  0  0  0  0  0  0  0
   -4.6765   -5.9707    0.0000 H   0  0  0  0  0  0  0  0  0  0  0  0
    3.3787    3.6577    0.0000 H   0  0  0  0  0  0  0  0  0  0  0  0
    2.9947    5.2458    0.0000 H   0  0  0  0  0  0  0  0  0  0  0  0
    1.2232    5.4604    0.0000 H   0  0  0  0  0  0  0  0  0  0  0  0
    1.4962    6.6680    0.0000 H   0  0  0  0  0  0  0  0  0  0  0  0
    0.8261    7.4380    0.0000 H   0  0  0  0  0  0  0  0  0  0  0  0
    0.0290   10.4216    0.0000 H   0  0  0  0  0  0  0  0  0  0  0  0
   -1.3955    9.6215    0.0000 H   0  0  0  0  0  0  0  0  0  0  0  0
    2.8811    8.7351    0.0000 H   0  0  0  0  0  0  0  0  0  0  0  0
    1.6925    7.6141    0.0000 H   0  0  0  0  0  0  0  0  0  0  0  0
    2.1223   11.9604    0.0000 H   0  0  0  0  0  0  0  0  0  0  0  0
    0.6227   10.9933    0.0000 H   0  0  0  0  0  0  0  0  0  0  0  0
    4.4054    9.4201    0.0000 H   0  0  0  0  0  0  0  0  0  0  0  0
    6.2127   13.5412    0.0000 H   0  0  0  0  0  0  0  0  0  0  0  0
    6.4987   10.9589    0.0000 H   0  0  0  0  0  0  0  0  0  0  0  0
    3.8333   14.5847    0.0000 H   0  0  0  0  0  0  0  0  0  0  0  0
    1.7400   13.0458    0.0000 H   0  0  0  0  0  0  0  0  0  0  0  0
   -1.9647   10.8957    0.0000 H   0  0  0  0  0  0  0  0  0  0  0  0
   -2.8956   11.2260    0.0000 H   0  0  0  0  0  0  0  0  0  0  0  0
   -4.9171   13.2285    0.0000 H   0  0  0  0  0  0  0  0  0  0  0  0
   -5.8482   11.7063    0.0000 H   0  0  0  0  0  0  0  0  0  0  0  0
   -3.4250   14.2645    0.0000 H   0  0  0  0  0  0  0  0  0  0  0  0
   -6.8332   12.4563    0.0000 H   0  0  0  0  0  0  0  0  0  0  0  0
   -7.9776   12.2451    0.0000 H   0  0  0  0  0  0  0  0  0  0  0  0
  -10.7608   12.8368    0.0000 H   0  0  0  0  0  0  0  0  0  0  0  0
  -10.7212   11.0528    0.0000 H   0  0  0  0  0  0  0  0  0  0  0  0
   -6.4697   12.7139    0.0000 H   0  0  0  0  0  0  0  0  0  0  0  0
   -5.6604   15.4333    0.0000 H   0  0  0  0  0  0  0  0  0  0  0  0
   -7.6590   17.6706    0.0000 H   0  0  0  0  0  0  0  0  0  0  0  0
  -10.5959   17.0584    0.0000 H   0  0  0  0  0  0  0  0  0  0  0  0
  -11.5341   14.2089    0.0000 H   0  0  0  0  0  0  0  0  0  0  0  0
  -11.9553   11.1512    0.0000 H   0  0  0  0  0  0  0  0  0  0  0  0
  -12.8038   10.3548    0.0000 H   0  0  0  0  0  0  0  0  0  0  0  0
  -15.4651    9.3479    0.0000 H   0  0  0  0  0  0  0  0  0  0  0  0
  -14.4672    7.8685    0.0000 H   0  0  0  0  0  0  0  0  0  0  0  0
  -11.7888   11.5645    0.0000 H   0  0  0  0  0  0  0  0  0  0  0  0
  -12.5781   14.2897    0.0000 H   0  0  0  0  0  0  0  0  0  0  0  0
  -15.4690   15.0913    0.0000 H   0  0  0  0  0  0  0  0  0  0  0  0
  -17.6087   12.9885    0.0000 H   0  0  0  0  0  0  0  0  0  0  0  0
  -16.8574   10.0841    0.0000 H   0  0  0  0  0  0  0  0  0  0  0  0
  -15.6474    7.1239    0.0000 H   0  0  0  0  0  0  0  0  0  0  0  0
  -15.8419    6.1554    0.0000 H   0  0  0  0  0  0  0  0  0  0  0  0
  -17.3414    5.6433    0.0000 H   0  0  0  0  0  0  0  0  0  0  0  0
  -17.5363    3.8695    0.0000 H   0  0  0  0  0  0  0  0  0  0  0  0
  -15.8971    3.1645    0.0000 H   0  0  0  0  0  0  0  0  0  0  0  0
  -16.4992    2.0828    0.0000 H   0  0  0  0  0  0  0  0  0  0  0  0
  -16.0732    1.1551    0.0000 H   0  0  0  0  0  0  0  0  0  0  0  0
  -16.1490   -1.9322    0.0000 H   0  0  0  0  0  0  0  0  0  0  0  0
  -14.5567   -1.5659    0.0000 H   0  0  0  0  0  0  0  0  0  0  0  0
  -16.9541    1.2302    0.0000 H   0  0  0  0  0  0  0  0  0  0  0  0
  -19.5749   -1.3302    0.0000 H   0  0  0  0  0  0  0  0  0  0  0  0
  -18.5911   -2.8189    0.0000 H   0  0  0  0  0  0  0  0  0  0  0  0
  -16.8797   -2.3134    0.0000 H   0  0  0  0  0  0  0  0  0  0  0  0
  -19.7916   -0.0955    0.0000 H   0  0  0  0  0  0  0  0  0  0  0  0
  -19.3737    1.6393    0.0000 H   0  0  0  0  0  0  0  0  0  0  0  0
  -17.4454    1.6379    0.0000 H   0  0  0  0  0  0  0  0  0  0  0  0
  -14.4785   -2.8014    0.0000 H   0  0  0  0  0  0  0  0  0  0  0  0
  -10.8093   -5.3673    0.0000 H   0  0  0  0  0  0  0  0  0  0  0  0
  -11.9831   -4.9115    0.0000 H   0  0  0  0  0  0  0  0  0  0  0  0
   -9.3244   -5.9380    0.0000 H   0  0  0  0  0  0  0  0  0  0  0  0
  -10.3834   -5.6776    0.0000 H   0  0  0  0  0  0  0  0  0  0  0  0
   -7.4086   -6.1140    0.0000 H   0  0  0  0  0  0  0  0  0  0  0  0
   -8.8298   -6.0419    0.0000 H   0  0  0  0  0  0  0  0  0  0  0  0
   -6.4347   -6.2794    0.0000 H   0  0  0  0  0  0  0  0  0  0  0  0
  -14.2023   -4.8879    0.0000 H   0  0  0  0  0  0  0  0  0  0  0  0
  -15.0693   -3.5031    0.0000 H   0  0  0  0  0  0  0  0  0  0  0  0
  -14.1568   -2.1477    0.0000 H   0  0  0  0  0  0  0  0  0  0  0  0
  -15.0215   -4.3476    0.0000 H   0  0  0  0  0  0  0  0  0  0  0  0
  -12.4192   -6.5222    0.0000 H   0  0  0  0  0  0  0  0  0  0  0  0
  -12.7782   -9.3184    0.0000 H   0  0  0  0  0  0  0  0  0  0  0  0
  -12.2042   -7.4774    0.0000 H   0  0  0  0  0  0  0  0  0  0  0  0
  -14.5551   -9.8297    0.0000 H   0  0  0  0  0  0  0  0  0  0  0  0
  -17.2059   -7.7739    0.0000 H   0  0  0  0  0  0  0  0  0  0  0  0
  -19.8069   -8.8610    0.0000 H   0  0  0  0  0  0  0  0  0  0  0  0
  -18.1838   -7.8197    0.0000 H   0  0  0  0  0  0  0  0  0  0  0  0
  -19.2542  -12.1280    0.0000 H   0  0  0  0  0  0  0  0  0  0  0  0
  -18.0085  -11.7068    0.0000 H   0  0  0  0  0  0  0  0  0  0  0  0
  -22.7482  -12.1135    0.0000 H   0  0  0  0  0  0  0  0  0  0  0  0
  -20.9903  -13.5623    0.0000 H   0  0  0  0  0  0  0  0  0  0  0  0
  -19.8290  -10.7099    0.0000 H   0  0  0  0  0  0  0  0  0  0  0  0
  -17.1441  -12.7211    0.0000 H   0  0  0  0  0  0  0  0  0  0  0  0
  -17.0100  -13.5118    0.0000 H   0  0  0  0  0  0  0  0  0  0  0  0
  -19.2672  -16.7643    0.0000 H   0  0  0  0  0  0  0  0  0  0  0  0
  -20.7997  -15.8501    0.0000 H   0  0  0  0  0  0  0  0  0  0  0  0
  -20.7237  -14.5373    0.0000 H   0  0  0  0  0  0  0  0  0  0  0  0
  -17.1737  -16.9806    0.0000 H   0  0  0  0  0  0  0  0  0  0  0  0
  -18.8062  -16.2601    0.0000 H   0  0  0  0  0  0  0  0  0  0  0  0
  -15.1947  -16.7094    0.0000 H   0  0  0  0  0  0  0  0  0  0  0  0
  -14.6208  -14.8685    0.0000 H   0  0  0  0  0  0  0  0  0  0  0  0
  -16.1533  -13.9543    0.0000 H   0  0  0  0  0  0  0  0  0  0  0  0
  1  2  1  0
  2  3  1  0
  3  4  2  0
  4  5  1  0
  5  6  2  0
  6  7  1  0
  7  8  2  0
  7  9  1  0
  9 10  1  0
 10 11  1  0
 11 12  2  0
  9 13  1  0
 13 14  1  0
 14 15  2  0
 15 16  1  0
 16 17  2  0
 17 18  1  0
 16 19  1  0
 14 20  1  0
 20 21  1  0
 21 22  2  0
 22 23  1  0
 23 24  2  0
 24 25  1  0
 25 26  2  0
 25 27  1  0
  1 28  2  0
  1 29  1  0
 29 30  1  0
 30 31  1  0
 31 32  1  0
 32 33  1  0
 33 34  1  0
 34 35  1  0
 35 36  1  0
 36 37  1  0
 37 38  2  0
 37 39  1  0
 39 40  1  0
 40 41  1  0
 41 42  1  0
 42 43  1  0
 42 44  2  0
 40 45  1  0
 45 46  2  0
 45 47  1  0
 47 48  1  0
 48 49  1  0
 49 50  1  0
 50 51  1  0
 51 52  1  0
 51 53  2  0
 48 54  1  0
 54 55  2  0
 54 56  1  0
 56 57  1  0
 57 58  1  0
 58 59  1  0
 59 60  1  0
 59 61  1  0
 57 62  1  0
 62 63  2  0
 62 64  1  0
 65 64  1  6
 65 66  1  0
 66 67  1  0
 67 68  1  0
 68 69  1  0
 69 70  1  0
 70 71  1  0
 71 72  1  0
 65 73  1  0
 65 74  1  0
 74 75  2  0
 74 76  1  0
 76 77  1  0
 77 78  1  0
 78 79  1  0
 79 80  1  0
 80 81  1  0
 81 82  1  0
 82 83  2  3
 82 84  1  0
 77 85  1  0
 85 86  2  0
 85 87  1  0
 87 88  1  0
 88 89  1  0
 89 90  1  0
 88 91  1  0
 91 92  2  0
 91 93  1  0
 93 94  1  0
 94 95  1  0
 95 96  1  0
 96 97  2  0
 97 98  1  0
 98 99  2  0
 99100  1  0
100101  2  0
 94102  1  0
102103  2  0
102104  1  0
104105  1  0
105106  1  0
106107  1  0
107108  2  0
108109  1  0
109110  2  0
110111  1  0
111112  2  0
105113  1  0
113114  2  0
113115  1  0
115116  1  0
116117  1  0
116118  1  0
118119  2  0
118120  1  0
120121  1  0
121122  1  0
122123  1  0
123124  1  0
123125  1  0
121126  1  0
126127  2  0
126128  1  0
128129  1  0
129130  1  0
130131  1  0
131132  1  0
132133  1  0
129134  1  0
129135  1  1
135136  2  0
135137  1  0
137138  1  0
138139  1  0
139140  1  0
140141  2  0
140142  1  0
138143  1  0
143144  2  0
143145  1  0
145146  1  0
146147  1  0
147148  1  0
148149  1  0
149150  1  0
149151  2  0
146152  1  0
152153  2  0
152154  1  0
154155  1  0
155156  1  0
156157  1  0
156158  1  0
158159  1  0
155160  1  0
160161  2  0
160162  1  0
  8  3  1  0
101 96  1  0
112107  1  0
 11  6  1  0
 18 13  2  0
 72133  2  0
 22  9  1  0
 26 21  1  0
  2163  1  0
  4164  1  0
  5165  1  0
  8166  1  0
 15167  1  0
 17168  1  0
 18169  1  0
 19170  1  0
 23171  1  0
 24172  1  0
 26173  1  0
 27174  1  0
 29175  1  0
 30176  1  0
 30177  1  0
 31178  1  0
 31179  1  0
 33180  1  0
 33181  1  0
 34182  1  0
 34183  1  0
 36184  1  0
 36185  1  0
 39186  1  0
 40187  1  1
 41188  1  0
 41189  1  0
 43190  1  0
 43191  1  0
 47192  1  0
 48193  1  1
 49194  1  0
 49195  1  0
 50196  1  0
 50197  1  0
 52198  1  0
 52199  1  0
 56200  1  0
 57201  1  1
 58202  1  0
 58203  1  0
 59204  1  0
 60205  1  0
 60206  1  0
 60207  1  0
 61208  1  0
 61209  1  0
 61210  1  0
 64211  1  0
 66212  1  0
 66213  1  0
 67214  1  0
 67215  1  0
 68216  1  0
 68217  1  0
 69218  1  0
 69219  1  0
 70220  1  0
 70221  1  0
 71222  1  0
 71223  1  0
 72224  1  0
 73225  1  0
 73226  1  0
 73227  1  0
 76228  1  0
 77229  1  6
 78230  1  0
 78231  1  0
 79232  1  0
 79233  1  0
 80234  1  0
 80235  1  0
 81236  1  0
 83237  1  0
 83238  1  0
 84239  1  0
 84240  1  0
 87241  1  0
 88242  1  6
 89243  1  0
 89244  1  0
 90245  1  0
 93246  1  0
 94247  1  6
 95248  1  0
 95249  1  0
 97250  1  0
 98251  1  0
 99252  1  0
100253  1  0
101254  1  0
104255  1  0
105256  1  6
106257  1  0
106258  1  0
108259  1  0
109260  1  0
110261  1  0
111262  1  0
112263  1  0
115264  1  0
116265  1  6
117266  1  0
117267  1  0
117268  1  0
120269  1  0
121270  1  6
122271  1  0
122272  1  0
123273  1  0
124274  1  0
124275  1  0
124276  1  0
125277  1  0
125278  1  0
125279  1  0
128280  1  0
130281  1  0
130282  1  0
131283  1  0
131284  1  0
132285  1  0
132286  1  0
133287  1  0
134288  1  0
134289  1  0
134290  1  0
137291  1  0
138292  1  1
139293  1  0
139294  1  0
145295  1  0
146296  1  6
147297  1  0
147298  1  0
148299  1  0
148300  1  0
150301  1  0
150302  1  0
154303  1  0
155304  1  1
156305  1  1
157306  1  0
157307  1  0
157308  1  0
158309  1  0
158310  1  0
159311  1  0
159312  1  0
159313  1  0
M  CHG  3  83   1 142  -1 162  -1
M  END
