
     RDKit          2D

354360  0  0  0  0  0  0  0  0999 V2000
   21.9471  -10.3260    0.0000 C   0  0  0  0  0  0  0  0  0  0  0  0
   23.4443  -10.2343    0.0000 N   0  0  0  0  0  0  0  0  0  0  0  0
   24.2724  -11.4850    0.0000 C   0  0  0  0  0  0  0  0  0  0  0  0
   23.6033  -12.8275    0.0000 C   0  0  0  0  0  0  0  0  0  0  0  0
   24.4314  -14.0782    0.0000 C   0  0  0  0  0  0  0  0  0  0  0  0
   25.9286  -13.9864    0.0000 C   0  0  0  0  0  0  0  0  0  0  0  0
   26.5977  -12.6439    0.0000 C   0  0  0  0  0  0  0  0  0  0  0  0
   25.7696  -11.3932    0.0000 C   0  0  0  0  0  0  0  0  0  0  0  0
   28.0812  -12.8654    0.0000 C   0  0  0  0  0  0  0  0  0  0  0  0
   28.3290  -14.3448    0.0000 O   0  0  0  0  0  0  0  0  0  0  0  0
   26.9986  -15.0376    0.0000 C   0  0  0  0  0  0  0  0  0  0  0  0
   26.7771  -16.5212    0.0000 O   0  0  0  0  0  0  0  0  0  0  0  0
   29.5335  -13.2408    0.0000 C   0  0  0  0  0  0  0  0  0  0  0  0
   30.5847  -12.1707    0.0000 C   0  0  0  0  0  0  0  0  0  0  0  0
   32.0370  -12.5461    0.0000 C   0  0  0  0  0  0  0  0  0  0  0  0
   32.4381  -13.9915    0.0000 C   0  0  0  0  0  0  0  0  0  0  0  0
   31.3869  -15.0615    0.0000 C   0  0  0  0  0  0  0  0  0  0  0  0
   29.9346  -14.6862    0.0000 C   0  0  0  0  0  0  0  0  0  0  0  0
   33.8903  -14.3669    0.0000 O   0  0  0  0  0  0  0  0  0  0  0  0
   30.1837  -10.7254    0.0000 O   0  0  0  0  0  0  0  0  0  0  0  0
   28.7314  -10.3500    0.0000 C   0  0  0  0  0  0  0  0  0  0  0  0
   27.6802  -11.4200    0.0000 C   0  0  0  0  0  0  0  0  0  0  0  0
   26.7185  -10.5453    0.0000 C   0  0  0  0  0  0  0  0  0  0  0  0
   26.5046   -9.7744    0.0000 C   0  0  0  0  0  0  0  0  0  0  0  0
   27.0652   -9.2038    0.0000 C   0  0  0  0  0  0  0  0  0  0  0  0
   27.8398   -9.4039    0.0000 C   0  0  0  0  0  0  0  0  0  0  0  0
   26.4770   -7.0839    0.0000 O   0  0  0  0  0  0  0  0  0  0  0  0
   21.2780  -11.6685    0.0000 S   0  0  0  0  0  0  0  0  0  0  0  0
   21.1191   -9.0753    0.0000 N   0  0  0  0  0  0  0  0  0  0  0  0
   19.6219   -9.1671    0.0000 C   0  0  0  0  0  0  0  0  0  0  0  0
   18.7938   -7.9164    0.0000 C   0  0  0  0  0  0  0  0  0  0  0  0
   17.2966   -8.0082    0.0000 C   0  0  0  0  0  0  0  0  0  0  0  0
   17.1242   -8.7865    0.0000 O   0  0  0  0  0  0  0  0  0  0  0  0
   16.4685   -6.7575    0.0000 N   0  0  0  0  0  0  0  0  0  0  0  0
   14.9713   -6.8493    0.0000 C   0  0  0  0  0  0  0  0  0  0  0  0
   15.3217   -8.3078    0.0000 C   0  0  0  0  0  0  0  0  0  0  0  0
   16.7600   -8.7336    0.0000 C   0  0  0  0  0  0  0  0  0  0  0  0
   17.1104  -10.1921    0.0000 C   0  0  0  0  0  0  0  0  0  0  0  0
   18.4860  -10.7901    0.0000 O   0  0  0  0  0  0  0  0  0  0  0  0
   16.0225  -11.2248    0.0000 O   0  0  0  0  0  0  0  0  0  0  0  0
   13.5330   -6.4234    0.0000 C   0  0  0  0  0  0  0  0  0  0  0  0
   12.7273   -7.6887    0.0000 O   0  0  0  0  0  0  0  0  0  0  0  0
   13.1827   -4.9649    0.0000 N   0  0  0  0  0  0  0  0  0  0  0  0
   11.7444   -4.5391    0.0000 C   0  0  0  0  0  0  0  0  0  0  0  0
   11.5748   -6.0295    0.0000 C   0  0  0  0  0  0  0  0  0  0  0  0
   12.7807   -6.9216    0.0000 C   0  0  0  0  0  0  0  0  0  0  0  0
   12.6111   -8.4119    0.0000 C   0  0  0  0  0  0  0  0  0  0  0  0
   13.6993   -9.4444    0.0000 O   0  0  0  0  0  0  0  0  0  0  0  0
   11.2356   -9.0103    0.0000 O   0  0  0  0  0  0  0  0  0  0  0  0
   10.5385   -3.6471    0.0000 C   0  0  0  0  0  0  0  0  0  0  0  0
    9.2462   -4.4086    0.0000 O   0  0  0  0  0  0  0  0  0  0  0  0
   10.7081   -2.1567    0.0000 N   0  0  0  0  0  0  0  0  0  0  0  0
    9.5022   -1.2646    0.0000 C   0  0  0  0  0  0  0  0  0  0  0  0
    8.8330   -2.6071    0.0000 C   0  0  0  0  0  0  0  0  0  0  0  0
    8.6741   -0.0139    0.0000 C   0  0  0  0  0  0  0  0  0  0  0  0
    7.2436   -0.4652    0.0000 O   0  0  0  0  0  0  0  0  0  0  0  0
    9.3432    1.3286    0.0000 N   0  0  0  0  0  0  0  0  0  0  0  0
    8.5151    2.5793    0.0000 C   0  0  0  0  0  0  0  0  0  0  0  0
    7.7622    1.2820    0.0000 C   0  0  0  0  0  0  0  0  0  0  0  0
    6.7774    0.1505    0.0000 C   0  0  0  0  0  0  0  0  0  0  0  0
    5.5962   -0.7741    0.0000 C   0  0  0  0  0  0  0  0  0  0  0  0
    4.2614   -1.4584    0.0000 C   0  0  0  0  0  0  0  0  0  0  0  0
    2.8212   -1.8778    0.0000 C   0  0  0  0  0  0  0  0  0  0  0  0
    1.3277   -2.0170    0.0000 C   0  0  0  0  0  0  0  0  0  0  0  0
   -0.1652   -1.8711    0.0000 C   0  0  0  0  0  0  0  0  0  0  0  0
   10.0034    2.7659    0.0000 C   0  0  0  0  0  0  0  0  0  0  0  0
    9.0089    3.9957    0.0000 C   0  0  0  0  0  0  0  0  0  0  0  0
   10.4984    3.8191    0.0000 O   0  0  0  0  0  0  0  0  0  0  0  0
    9.2257    5.4800    0.0000 N   0  0  0  0  0  0  0  0  0  0  0  0
    9.1576    6.9784    0.0000 C   0  0  0  0  0  0  0  0  0  0  0  0
   10.3089    7.9400    0.0000 C   0  0  0  0  0  0  0  0  0  0  0  0
   11.7173    7.4238    0.0000 C   0  0  0  0  0  0  0  0  0  0  0  0
   12.8685    8.3854    0.0000 C   0  0  0  0  0  0  0  0  0  0  0  0
   14.2769    7.8693    0.0000 C   0  0  0  0  0  0  0  0  0  0  0  0
   15.4281    8.8309    0.0000 N   0  0  0  0  0  0  0  0  0  0  0  0
    8.8073    8.4369    0.0000 C   0  0  0  0  0  0  0  0  0  0  0  0
   10.1559    9.0936    0.0000 O   0  0  0  0  0  0  0  0  0  0  0  0
    8.1872    9.8028    0.0000 N   0  0  0  0  0  0  0  0  0  0  0  0
    7.3199   11.0266    0.0000 C   0  0  0  0  0  0  0  0  0  0  0  0
    7.7684   12.4579    0.0000 C   0  0  0  0  0  0  0  0  0  0  0  0
    9.2323   12.7851    0.0000 C   0  0  0  0  0  0  0  0  0  0  0  0
    9.6809   14.2165    0.0000 C   0  0  0  0  0  0  0  0  0  0  0  0
   11.1448   14.5437    0.0000 N   0  0  0  0  0  0  0  0  0  0  0  0
   11.5934   15.9750    0.0000 C   0  0  0  0  0  0  0  0  0  0  0  0
   13.0573   16.3022    0.0000 N   0  0  0  0  0  0  0  0  0  0  0  0
   10.5781   17.0792    0.0000 N   0  0  0  0  0  0  0  0  0  0  0  0
    6.2366   12.0641    0.0000 C   0  0  0  0  0  0  0  0  0  0  0  0
    7.0160   13.3457    0.0000 O   0  0  0  0  0  0  0  0  0  0  0  0
    4.9765   12.8779    0.0000 N   0  0  0  0  0  0  0  0  0  0  0  0
    3.5852   13.4385    0.0000 C   0  0  0  0  0  0  0  0  0  0  0  0
    3.1887   14.8852    0.0000 C   0  0  0  0  0  0  0  0  0  0  0  0
    4.2433   15.9519    0.0000 C   0  0  0  0  0  0  0  0  0  0  0  0
    3.8469   17.3985    0.0000 C   0  0  0  0  0  0  0  0  0  0  0  0
    4.9015   18.4652    0.0000 N   0  0  0  0  0  0  0  0  0  0  0  0
    4.5050   19.9118    0.0000 C   0  0  0  0  0  0  0  0  0  0  0  0
    5.5596   20.9785    0.0000 N   0  0  0  0  0  0  0  0  0  0  0  0
    3.0539   20.2918    0.0000 N   0  0  0  0  0  0  0  0  0  0  0  0
    2.1130   13.7257    0.0000 C   0  0  0  0  0  0  0  0  0  0  0  0
    2.0758   15.2252    0.0000 O   0  0  0  0  0  0  0  0  0  0  0  0
    0.6130   13.7290    0.0000 N   0  0  0  0  0  0  0  0  0  0  0  0
   -0.8606   13.4485    0.0000 C   0  0  0  0  0  0  0  0  0  0  0  0
   -1.9762   14.4511    0.0000 C   0  0  0  0  0  0  0  0  0  0  0  0
   -2.2544   12.8941    0.0000 C   0  0  0  0  0  0  0  0  0  0  0  0
   -3.0963   14.1355    0.0000 O   0  0  0  0  0  0  0  0  0  0  0  0
   -3.5180   12.0860    0.0000 N   0  0  0  0  0  0  0  0  0  0  0  0
   -4.6060   11.0533    0.0000 C   0  0  0  0  0  0  0  0  0  0  0  0
   -6.0866   11.2936    0.0000 C   0  0  0  0  0  0  0  0  0  0  0  0
   -6.6188   12.6960    0.0000 C   0  0  0  0  0  0  0  0  0  0  0  0
   -8.0662   13.0898    0.0000 C   0  0  0  0  0  0  0  0  0  0  0  0
   -8.1389   14.5880    0.0000 N   0  0  0  0  0  0  0  0  0  0  0  0
   -6.7365   15.1202    0.0000 C   0  0  0  0  0  0  0  0  0  0  0  0
   -5.7970   13.9509    0.0000 N   0  0  0  0  0  0  0  0  0  0  0  0
   -5.4788    9.8334    0.0000 C   0  0  0  0  0  0  0  0  0  0  0  0
   -6.8582   10.4225    0.0000 O   0  0  0  0  0  0  0  0  0  0  0  0
   -6.1050    8.4703    0.0000 N   0  0  0  0  0  0  0  0  0  0  0  0
   -6.4619    7.0134    0.0000 C   0  0  0  0  0  0  0  0  0  0  0  0
   -7.8374    6.4151    0.0000 C   0  0  0  0  0  0  0  0  0  0  0  0
   -6.5366    5.5153    0.0000 C   0  0  0  0  0  0  0  0  0  0  0  0
   -8.0156    5.2651    0.0000 O   0  0  0  0  0  0  0  0  0  0  0  0
   -6.3264    4.0300    0.0000 N   0  0  0  0  0  0  0  0  0  0  0  0
   -5.8390    2.6115    0.0000 C   0  0  0  0  0  0  0  0  0  0  0  0
   -5.0919    1.3107    0.0000 C   0  0  0  0  0  0  0  0  0  0  0  0
   -4.1122    0.1749    0.0000 C   0  0  0  0  0  0  0  0  0  0  0  0
   -2.9352   -0.7550    0.0000 C   0  0  0  0  0  0  0  0  0  0  0  0
   -1.6035   -1.4453    0.0000 C   0  0  0  0  0  0  0  0  0  0  0  0
   -7.3265    2.8047    0.0000 C   0  0  0  0  0  0  0  0  0  0  0  0
   -6.6727    1.3645    0.0000 C   0  0  0  0  0  0  0  0  0  0  0  0
   -6.3549   -0.1015    0.0000 O   0  0  0  0  0  0  0  0  0  0  0  0
   -8.1694    1.4629    0.0000 N   0  0  0  0  0  0  0  0  0  0  0  0
   -9.0031    0.2160    0.0000 C   0  0  0  0  0  0  0  0  0  0  0  0
   -9.3600   -1.2410    0.0000 C   0  0  0  0  0  0  0  0  0  0  0  0
  -10.4999    0.3144    0.0000 C   0  0  0  0  0  0  0  0  0  0  0  0
  -11.1630    1.6599    0.0000 O   0  0  0  0  0  0  0  0  0  0  0  0
  -11.3336   -0.9325    0.0000 N   0  0  0  0  0  0  0  0  0  0  0  0
  -12.8303   -0.8341    0.0000 C   0  0  0  0  0  0  0  0  0  0  0  0
  -14.2031   -0.2296    0.0000 C   0  0  0  0  0  0  0  0  0  0  0  0
  -14.3661    1.2615    0.0000 C   0  0  0  0  0  0  0  0  0  0  0  0
  -15.7389    1.8660    0.0000 C   0  0  0  0  0  0  0  0  0  0  0  0
  -15.9018    3.3571    0.0000 O   0  0  0  0  0  0  0  0  0  0  0  0
  -16.9488    0.9794    0.0000 O   0  0  0  0  0  0  0  0  0  0  0  0
  -13.6640   -2.0811    0.0000 C   0  0  0  0  0  0  0  0  0  0  0  0
  -13.0009   -3.4265    0.0000 O   0  0  0  0  0  0  0  0  0  0  0  0
  -15.1608   -1.9826    0.0000 N   0  0  0  0  0  0  0  0  0  0  0  0
  -15.9944   -3.2296    0.0000 C   0  0  0  0  0  0  0  0  0  0  0  0
  -16.3513   -4.6865    0.0000 C   0  0  0  0  0  0  0  0  0  0  0  0
  -17.7915   -5.1059    0.0000 C   0  0  0  0  0  0  0  0  0  0  0  0
  -18.1484   -6.5628    0.0000 C   0  0  0  0  0  0  0  0  0  0  0  0
  -19.5886   -6.9821    0.0000 N   0  0  0  0  0  0  0  0  0  0  0  0
  -19.9455   -8.4391    0.0000 C   0  0  0  0  0  0  0  0  0  0  0  0
  -21.4261   -8.6798    0.0000 N   0  0  0  0  0  0  0  0  0  0  0  0
  -18.8622   -9.4766    0.0000 N   0  0  0  0  0  0  0  0  0  0  0  0
  -17.4912   -3.1311    0.0000 C   0  0  0  0  0  0  0  0  0  0  0  0
  -18.1543   -1.7856    0.0000 O   0  0  0  0  0  0  0  0  0  0  0  0
  -18.3249   -4.3781    0.0000 N   0  0  0  0  0  0  0  0  0  0  0  0
  -19.8216   -4.2796    0.0000 C   0  0  0  0  0  0  0  0  0  0  0  0
  -21.1944   -3.6751    0.0000 C   0  0  0  0  0  0  0  0  0  0  0  0
  -20.6553   -5.5266    0.0000 C   0  0  0  0  0  0  0  0  0  0  0  0
  -20.3375   -6.9925    0.0000 O   0  0  0  0  0  0  0  0  0  0  0  0
  -22.1521   -5.4281    0.0000 N   0  0  0  0  0  0  0  0  0  0  0  0
  -22.9857   -6.6751    0.0000 C   0  0  0  0  0  0  0  0  0  0  0  0
  -23.3426   -8.1320    0.0000 C   0  0  0  0  0  0  0  0  0  0  0  0
  -24.7828   -8.5514    0.0000 C   0  0  0  0  0  0  0  0  0  0  0  0
  -25.1397  -10.0083    0.0000 C   0  0  0  0  0  0  0  0  0  0  0  0
  -26.5799  -10.4277    0.0000 N   0  0  0  0  0  0  0  0  0  0  0  0
  -26.9368  -11.8846    0.0000 C   0  0  0  0  0  0  0  0  0  0  0  0
  -28.3770  -12.3040    0.0000 N   0  0  0  0  0  0  0  0  0  0  0  0
  -25.8535  -12.9221    0.0000 N   0  0  0  0  0  0  0  0  0  0  0  0
  -24.4825   -6.5766    0.0000 C   0  0  0  0  0  0  0  0  0  0  0  0
  -25.1456   -5.2311    0.0000 O   0  0  0  0  0  0  0  0  0  0  0  0
  -25.3162   -7.8236    0.0000 N   0  0  0  0  0  0  0  0  0  0  0  0
  -26.8129   -7.7251    0.0000 C   0  0  0  0  0  0  0  0  0  0  0  0
  -28.1858   -7.1206    0.0000 C   0  0  0  0  0  0  0  0  0  0  0  0
  -28.3487   -5.6295    0.0000 C   0  0  0  0  0  0  0  0  0  0  0  0
  -29.7215   -5.0250    0.0000 C   0  0  0  0  0  0  0  0  0  0  0  0
  -29.8844   -3.5339    0.0000 N   0  0  0  0  0  0  0  0  0  0  0  0
  -31.2572   -2.9294    0.0000 C   0  0  0  0  0  0  0  0  0  0  0  0
  -31.4201   -1.4383    0.0000 N   0  0  0  0  0  0  0  0  0  0  0  0
  -32.4671   -3.8161    0.0000 N   0  0  0  0  0  0  0  0  0  0  0  0
  -27.6466   -8.9721    0.0000 C   0  0  0  0  0  0  0  0  0  0  0  0
  -29.1442   -9.0568    0.0000 O   0  0  0  0  0  0  0  0  0  0  0  0
  -27.3288  -10.4380    0.0000 O   0  0  0  0  0  0  0  0  0  0  0  0
   23.9448   -8.8202    0.0000 H   0  0  0  0  0  0  0  0  0  0  0  0
   22.1061  -12.9193    0.0000 H   0  0  0  0  0  0  0  0  0  0  0  0
   23.7623  -15.4207    0.0000 H   0  0  0  0  0  0  0  0  0  0  0  0
   26.0940   -9.9287    0.0000 H   0  0  0  0  0  0  0  0  0  0  0  0
   33.0882  -11.4761    0.0000 H   0  0  0  0  0  0  0  0  0  0  0  0
   31.7879  -16.5069    0.0000 H   0  0  0  0  0  0  0  0  0  0  0  0
   28.8834  -15.7562    0.0000 H   0  0  0  0  0  0  0  0  0  0  0  0
   34.2914  -15.8123    0.0000 H   0  0  0  0  0  0  0  0  0  0  0  0
   25.1767  -12.1147    0.0000 H   0  0  0  0  0  0  0  0  0  0  0  0
   24.4312   -9.0497    0.0000 H   0  0  0  0  0  0  0  0  0  0  0  0
   29.3815   -7.8346    0.0000 H   0  0  0  0  0  0  0  0  0  0  0  0
   27.5282   -6.0138    0.0000 H   0  0  0  0  0  0  0  0  0  0  0  0
   21.7882   -7.7328    0.0000 H   0  0  0  0  0  0  0  0  0  0  0  0
   19.9722  -10.6256    0.0000 H   0  0  0  0  0  0  0  0  0  0  0  0
   18.3296   -9.9286    0.0000 H   0  0  0  0  0  0  0  0  0  0  0  0
   20.1693   -7.3181    0.0000 H   0  0  0  0  0  0  0  0  0  0  0  0
   18.4434   -6.4579    0.0000 H   0  0  0  0  0  0  0  0  0  0  0  0
   17.1376   -5.4150    0.0000 H   0  0  0  0  0  0  0  0  0  0  0  0
   15.1409   -5.3589    0.0000 H   0  0  0  0  0  0  0  0  0  0  0  0
   15.1521   -9.7981    0.0000 H   0  0  0  0  0  0  0  0  0  0  0  0
   13.8469   -8.5814    0.0000 H   0  0  0  0  0  0  0  0  0  0  0  0
   18.2572   -8.6418    0.0000 H   0  0  0  0  0  0  0  0  0  0  0  0
   17.2852   -7.3285    0.0000 H   0  0  0  0  0  0  0  0  0  0  0  0
   14.2706   -3.9323    0.0000 H   0  0  0  0  0  0  0  0  0  0  0  0
   12.4135   -3.1966    0.0000 H   0  0  0  0  0  0  0  0  0  0  0  0
   10.9057   -7.3720    0.0000 H   0  0  0  0  0  0  0  0  0  0  0  0
   10.1365   -5.6037    0.0000 H   0  0  0  0  0  0  0  0  0  0  0  0
   14.2190   -7.3474    0.0000 H   0  0  0  0  0  0  0  0  0  0  0  0
   13.7548   -5.7809    0.0000 H   0  0  0  0  0  0  0  0  0  0  0  0
   12.0836   -1.5584    0.0000 H   0  0  0  0  0  0  0  0  0  0  0  0
   10.5901   -0.2319    0.0000 H   0  0  0  0  0  0  0  0  0  0  0  0
    9.5025   -3.9494    0.0000 H   0  0  0  0  0  0  0  0  0  0  0  0
    7.7451   -3.6398    0.0000 H   0  0  0  0  0  0  0  0  0  0  0  0
    7.6271   -1.7150    0.0000 H   0  0  0  0  0  0  0  0  0  0  0  0
   10.8404    1.2372    0.0000 H   0  0  0  0  0  0  0  0  0  0  0  0
    9.1906    0.8242    0.0000 H   0  0  0  0  0  0  0  0  0  0  0  0
    8.1655   -0.1628    0.0000 H   0  0  0  0  0  0  0  0  0  0  0  0
    7.9958   -0.7243    0.0000 H   0  0  0  0  0  0  0  0  0  0  0  0
    7.0813   -1.3184    0.0000 H   0  0  0  0  0  0  0  0  0  0  0  0
    6.9492   -1.4218    0.0000 H   0  0  0  0  0  0  0  0  0  0  0  0
    5.7993   -2.2602    0.0000 H   0  0  0  0  0  0  0  0  0  0  0  0
    5.3496   -2.4908    0.0000 H   0  0  0  0  0  0  0  0  0  0  0  0
    4.1796   -2.9562    0.0000 H   0  0  0  0  0  0  0  0  0  0  0  0
    3.6944   -3.0975    0.0000 H   0  0  0  0  0  0  0  0  0  0  0  0
    2.4574   -3.3330    0.0000 H   0  0  0  0  0  0  0  0  0  0  0  0
    1.9542   -3.3799    0.0000 H   0  0  0  0  0  0  0  0  0  0  0  0
    0.5340   -3.2898    0.0000 H   0  0  0  0  0  0  0  0  0  0  0  0
   -0.4523   -3.3434    0.0000 H   0  0  0  0  0  0  0  0  0  0  0  0
   11.0482    1.6895    0.0000 H   0  0  0  0  0  0  0  0  0  0  0  0
   11.4117    3.2824    0.0000 H   0  0  0  0  0  0  0  0  0  0  0  0
    9.9212    4.2636    0.0000 H   0  0  0  0  0  0  0  0  0  0  0  0
   10.7035    5.2232    0.0000 H   0  0  0  0  0  0  0  0  0  0  0  0
   10.4465    6.2111    0.0000 H   0  0  0  0  0  0  0  0  0  0  0  0
   11.0618    9.2374    0.0000 H   0  0  0  0  0  0  0  0  0  0  0  0
    9.4300    9.1556    0.0000 H   0  0  0  0  0  0  0  0  0  0  0  0
   12.7378    6.3245    0.0000 H   0  0  0  0  0  0  0  0  0  0  0  0
   11.3007    5.9829    0.0000 H   0  0  0  0  0  0  0  0  0  0  0  0
   13.4576    9.7649    0.0000 H   0  0  0  0  0  0  0  0  0  0  0  0
   11.8480    9.4848    0.0000 H   0  0  0  0  0  0  0  0  0  0  0  0
   15.4238    6.9025    0.0000 H   0  0  0  0  0  0  0  0  0  0  0  0
   13.6877    6.4898    0.0000 H   0  0  0  0  0  0  0  0  0  0  0  0
   16.8365    8.3147    0.0000 H   0  0  0  0  0  0  0  0  0  0  0  0
   16.1810   10.1282    0.0000 H   0  0  0  0  0  0  0  0  0  0  0  0
   14.4076    9.9302    0.0000 H   0  0  0  0  0  0  0  0  0  0  0  0
    9.5693   10.3857    0.0000 H   0  0  0  0  0  0  0  0  0  0  0  0
    8.8190   11.0779    0.0000 H   0  0  0  0  0  0  0  0  0  0  0  0
    7.7004   13.9564    0.0000 H   0  0  0  0  0  0  0  0  0  0  0  0
    6.3719   13.0053    0.0000 H   0  0  0  0  0  0  0  0  0  0  0  0
   10.7198   12.5919    0.0000 H   0  0  0  0  0  0  0  0  0  0  0  0
    9.6609   11.3476    0.0000 H   0  0  0  0  0  0  0  0  0  0  0  0
    9.6129   15.7149    0.0000 H   0  0  0  0  0  0  0  0  0  0  0  0
    8.2281   14.5896    0.0000 H   0  0  0  0  0  0  0  0  0  0  0  0
   12.1601   13.4395    0.0000 H   0  0  0  0  0  0  0  0  0  0  0  0
   13.5058   17.7336    0.0000 H   0  0  0  0  0  0  0  0  0  0  0  0
   14.0726   15.1980    0.0000 H   0  0  0  0  0  0  0  0  0  0  0  0
   11.0267   18.5105    0.0000 H   0  0  0  0  0  0  0  0  0  0  0  0
    9.1142   16.7520    0.0000 H   0  0  0  0  0  0  0  0  0  0  0  0
    5.8240   14.1155    0.0000 H   0  0  0  0  0  0  0  0  0  0  0  0
    4.8186   14.2922    0.0000 H   0  0  0  0  0  0  0  0  0  0  0  0
    2.3214   16.1090    0.0000 H   0  0  0  0  0  0  0  0  0  0  0  0
    1.7179   14.5907    0.0000 H   0  0  0  0  0  0  0  0  0  0  0  0
    5.5992   16.5935    0.0000 H   0  0  0  0  0  0  0  0  0  0  0  0
    5.3811   14.9743    0.0000 H   0  0  0  0  0  0  0  0  0  0  0  0
    2.9795   18.6223    0.0000 H   0  0  0  0  0  0  0  0  0  0  0  0
    2.4229   16.9269    0.0000 H   0  0  0  0  0  0  0  0  0  0  0  0
    6.3526   18.0852    0.0000 H   0  0  0  0  0  0  0  0  0  0  0  0
    5.1631   22.4252    0.0000 H   0  0  0  0  0  0  0  0  0  0  0  0
    7.0107   20.5986    0.0000 H   0  0  0  0  0  0  0  0  0  0  0  0
    2.6575   21.7385    0.0000 H   0  0  0  0  0  0  0  0  0  0  0  0
    1.9993   19.2251    0.0000 H   0  0  0  0  0  0  0  0  0  0  0  0
    0.4737   15.2226    0.0000 H   0  0  0  0  0  0  0  0  0  0  0  0
   -0.4576   14.8933    0.0000 H   0  0  0  0  0  0  0  0  0  0  0  0
   -1.6657   15.9186    0.0000 H   0  0  0  0  0  0  0  0  0  0  0  0
   -3.2888   15.1771    0.0000 H   0  0  0  0  0  0  0  0  0  0  0  0
   -3.0543   13.4082    0.0000 H   0  0  0  0  0  0  0  0  0  0  0  0
   -4.4426   13.2671    0.0000 H   0  0  0  0  0  0  0  0  0  0  0  0
   -5.0481   12.4866    0.0000 H   0  0  0  0  0  0  0  0  0  0  0  0
   -7.5833   11.1947    0.0000 H   0  0  0  0  0  0  0  0  0  0  0  0
   -6.4297    9.8334    0.0000 H   0  0  0  0  0  0  0  0  0  0  0  0
   -9.2355   12.1503    0.0000 H   0  0  0  0  0  0  0  0  0  0  0  0
   -9.3938   15.4098    0.0000 H   0  0  0  0  0  0  0  0  0  0  0  0
   -6.3428   16.5676    0.0000 H   0  0  0  0  0  0  0  0  0  0  0  0
   -7.5214    8.9641    0.0000 H   0  0  0  0  0  0  0  0  0  0  0  0
   -7.6088    7.9801    0.0000 H   0  0  0  0  0  0  0  0  0  0  0  0
   -9.0433    7.3071    0.0000 H   0  0  0  0  0  0  0  0  0  0  0  0
   -9.0430    5.5227    0.0000 H   0  0  0  0  0  0  0  0  0  0  0  0
   -7.3365    5.0012    0.0000 H   0  0  0  0  0  0  0  0  0  0  0  0
   -7.8168    3.8601    0.0000 H   0  0  0  0  0  0  0  0  0  0  0  0
   -5.6745   -0.0715    0.0000 H   0  0  0  0  0  0  0  0  0  0  0  0
   -6.5224    0.8594    0.0000 H   0  0  0  0  0  0  0  0  0  0  0  0
   -4.5992   -1.2438    0.0000 H   0  0  0  0  0  0  0  0  0  0  0  0
   -5.4314   -0.5390    0.0000 H   0  0  0  0  0  0  0  0  0  0  0  0
   -2.9623   -2.2547    0.0000 H   0  0  0  0  0  0  0  0  0  0  0  0
   -4.2027   -1.5571    0.0000 H   0  0  0  0  0  0  0  0  0  0  0  0
   -2.1641   -2.8366    0.0000 H   0  0  0  0  0  0  0  0  0  0  0  0
   -8.4989    1.8689    0.0000 H   0  0  0  0  0  0  0  0  0  0  0  0
   -8.6582    3.4950    0.0000 H   0  0  0  0  0  0  0  0  0  0  0  0
   -7.2376    4.3020    0.0000 H   0  0  0  0  0  0  0  0  0  0  0  0
   -8.9916    2.7176    0.0000 H   0  0  0  0  0  0  0  0  0  0  0  0
   -7.6303   -0.3885    0.0000 H   0  0  0  0  0  0  0  0  0  0  0  0
  -10.5542   -2.1487    0.0000 H   0  0  0  0  0  0  0  0  0  0  0  0
   -9.1971   -2.7321    0.0000 H   0  0  0  0  0  0  0  0  0  0  0  0
   -7.8633   -1.3395    0.0000 H   0  0  0  0  0  0  0  0  0  0  0  0
  -10.8394   -2.3488    0.0000 H   0  0  0  0  0  0  0  0  0  0  0  0
  -12.2985    0.5685    0.0000 H   0  0  0  0  0  0  0  0  0  0  0  0
  -15.6767    0.0506    0.0000 H   0  0  0  0  0  0  0  0  0  0  0  0
  -14.9020   -1.5569    0.0000 H   0  0  0  0  0  0  0  0  0  0  0  0
  -14.0092    2.7185    0.0000 H   0  0  0  0  0  0  0  0  0  0  0  0
  -12.8684    1.3462    0.0000 H   0  0  0  0  0  0  0  0  0  0  0  0
  -15.9829   -0.7279    0.0000 H   0  0  0  0  0  0  0  0  0  0  0  0
  -14.6216   -3.8340    0.0000 H   0  0  0  0  0  0  0  0  0  0  0  0
  -16.0079   -6.1466    0.0000 H   0  0  0  0  0  0  0  0  0  0  0  0
  -14.8546   -4.7850    0.0000 H   0  0  0  0  0  0  0  0  0  0  0  0
  -19.2883   -5.0074    0.0000 H   0  0  0  0  0  0  0  0  0  0  0  0
  -18.6355   -3.8658    0.0000 H   0  0  0  0  0  0  0  0  0  0  0  0
  -17.9855   -8.0539    0.0000 H   0  0  0  0  0  0  0  0  0  0  0  0
  -16.6748   -6.8430    0.0000 H   0  0  0  0  0  0  0  0  0  0  0  0
  -20.8908   -6.2376    0.0000 H   0  0  0  0  0  0  0  0  0  0  0  0
  -21.7426  -10.3154    0.0000 H   0  0  0  0  0  0  0  0  0  0  0  0
  -22.3565   -7.7002    0.0000 H   0  0  0  0  0  0  0  0  0  0  0  0
  -19.2191  -10.9335    0.0000 H   0  0  0  0  0  0  0  0  0  0  0  0
  -17.4220   -9.0572    0.0000 H   0  0  0  0  0  0  0  0  0  0  0  0
  -18.0071   -5.8440    0.0000 H   0  0  0  0  0  0  0  0  0  0  0  0
  -19.4647   -2.8226    0.0000 H   0  0  0  0  0  0  0  0  0  0  0  0
  -21.3574   -2.1840    0.0000 H   0  0  0  0  0  0  0  0  0  0  0  0
  -22.6680   -3.3949    0.0000 H   0  0  0  0  0  0  0  0  0  0  0  0
  -21.8933   -5.0024    0.0000 H   0  0  0  0  0  0  0  0  0  0  0  0
  -22.9742   -4.1735    0.0000 H   0  0  0  0  0  0  0  0  0  0  0  0
  -21.6129   -7.2795    0.0000 H   0  0  0  0  0  0  0  0  0  0  0  0
  -22.9992   -9.5921    0.0000 H   0  0  0  0  0  0  0  0  0  0  0  0
  -21.8665   -7.8654    0.0000 H   0  0  0  0  0  0  0  0  0  0  0  0
  -26.2796   -8.4529    0.0000 H   0  0  0  0  0  0  0  0  0  0  0  0
  -25.6269   -7.3114    0.0000 H   0  0  0  0  0  0  0  0  0  0  0  0
  -24.9768  -11.4994    0.0000 H   0  0  0  0  0  0  0  0  0  0  0  0
  -23.6661  -10.2885    0.0000 H   0  0  0  0  0  0  0  0  0  0  0  0
  -27.8821   -9.6831    0.0000 H   0  0  0  0  0  0  0  0  0  0  0  0
  -28.7339  -13.7609    0.0000 H   0  0  0  0  0  0  0  0  0  0  0  0
  -29.4603  -11.2664    0.0000 H   0  0  0  0  0  0  0  0  0  0  0  0
  -26.2104  -14.3791    0.0000 H   0  0  0  0  0  0  0  0  0  0  0  0
  -24.4134  -12.5028    0.0000 H   0  0  0  0  0  0  0  0  0  0  0  0
  -24.9984   -9.2895    0.0000 H   0  0  0  0  0  0  0  0  0  0  0  0
  -26.2811   -6.3225    0.0000 H   0  0  0  0  0  0  0  0  0  0  0  0
  -29.6834   -7.2053    0.0000 H   0  0  0  0  0  0  0  0  0  0  0  0
  -28.7176   -8.5232    0.0000 H   0  0  0  0  0  0  0  0  0  0  0  0
  -27.9918   -4.1726    0.0000 H   0  0  0  0  0  0  0  0  0  0  0  0
  -26.8511   -5.5448    0.0000 H   0  0  0  0  0  0  0  0  0  0  0  0
  -31.2183   -4.9265    0.0000 H   0  0  0  0  0  0  0  0  0  0  0  0
  -30.2533   -6.4276    0.0000 H   0  0  0  0  0  0  0  0  0  0  0  0
  -28.6745   -2.6472    0.0000 H   0  0  0  0  0  0  0  0  0  0  0  0
  -32.7930   -0.8338    0.0000 H   0  0  0  0  0  0  0  0  0  0  0  0
  -30.2103   -0.5516    0.0000 H   0  0  0  0  0  0  0  0  0  0  0  0
  -33.8399   -3.2116    0.0000 H   0  0  0  0  0  0  0  0  0  0  0  0
  -32.3042   -5.3072    0.0000 H   0  0  0  0  0  0  0  0  0  0  0  0
  1  2  1  0
  2  3  1  0
  3  4  2  0
  4  5  1  0
  5  6  2  0
  6  7  1  0
  7  8  2  0
  7  9  1  0
  9 10  1  0
 10 11  1  0
 11 12  2  0
  9 13  1  0
 13 14  1  0
 14 15  2  0
 15 16  1  0
 16 17  2  0
 17 18  1  0
 16 19  1  0
 14 20  1  0
 20 21  1  0
 21 22  2  0
 22 23  1  0
 23 24  2  0
 24 25  1  0
 25 26  2  0
 25 27  1  0
  1 28  2  0
  1 29  1  0
 29 30  1  0
 30 31  1  0
 31 32  1  0
 32 33  2  0
 32 34  1  0
 34 35  1  0
 35 36  1  0
 36 37  1  0
 37 38  1  0
 38 39  2  0
 38 40  1  0
 35 41  1  0
 41 42  2  0
 41 43  1  0
 43 44  1  0
 44 45  1  0
 45 46  1  0
 46 47  1  0
 47 48  2  0
 47 49  1  0
 44 50  1  0
 50 51  2  0
 50 52  1  0
 52 53  1  0
 53 54  1  0
 53 55  1  0
 55 56  2  0
 55 57  1  0
 58 57  1  6
 58 59  1  0
 59 60  1  0
 60 61  1  0
 61 62  1  0
 62 63  1  0
 63 64  1  0
 64 65  1  0
 58 66  1  0
 58 67  1  0
 67 68  2  0
 67 69  1  0
 69 70  1  0
 70 71  1  0
 71 72  1  0
 72 73  1  0
 73 74  1  0
 74 75  1  0
 70 76  1  0
 76 77  2  0
 76 78  1  0
 78 79  1  0
 79 80  1  0
 80 81  1  0
 81 82  1  0
 82 83  1  0
 83 84  1  0
 84 85  2  3
 84 86  1  0
 79 87  1  0
 87 88  2  0
 87 89  1  0
 89 90  1  0
 90 91  1  0
 91 92  1  0
 92 93  1  0
 93 94  1  0
 94 95  1  0
 95 96  2  3
 95 97  1  0
 90 98  1  0
 98 99  2  0
 98100  1  0
100101  1  0
101102  1  0
101103  1  0
103104  2  0
103105  1  0
105106  1  0
106107  1  0
107108  1  0
108109  2  0
109110  1  0
110111  1  0
111112  2  0
106113  1  0
113114  2  0
113115  1  0
115116  1  0
116117  1  0
116118  1  0
118119  2  0
118120  1  0
120121  1  0
121122  1  0
122123  1  0
123124  1  0
124125  1  0
121126  1  0
121127  1  1
127128  2  0
127129  1  0
129130  1  0
130131  1  0
130132  1  0
132133  2  0
132134  1  0
134135  1  0
135136  1  0
136137  1  0
137138  1  0
138139  2  0
138140  1  0
135141  1  0
141142  2  0
141143  1  0
143144  1  0
144145  1  0
145146  1  0
146147  1  0
147148  1  0
148149  1  0
149150  2  3
149151  1  0
144152  1  0
152153  2  0
152154  1  0
154155  1  0
155156  1  0
155157  1  0
157158  2  0
157159  1  0
159160  1  0
160161  1  0
161162  1  0
162163  1  0
163164  1  0
164165  1  0
165166  2  3
165167  1  0
160168  1  0
168169  2  0
168170  1  0
170171  1  0
171172  1  0
172173  1  0
173174  1  0
174175  1  0
175176  1  0
176177  2  3
176178  1  0
171179  1  0
179180  2  0
179181  1  0
  8  3  1  0
112108  1  0
 11  6  1  0
 18 13  2  0
 65125  2  0
 22  9  1  0
 26 21  1  0
  2182  1  0
  4183  1  0
  5184  1  0
  8185  1  0
 15186  1  0
 17187  1  0
 18188  1  0
 19189  1  0
 23190  1  0
 24191  1  0
 26192  1  0
 27193  1  0
 29194  1  0
 30195  1  0
 30196  1  0
 31197  1  0
 31198  1  0
 34199  1  0
 35200  1  1
 36201  1  0
 36202  1  0
 37203  1  0
 37204  1  0
 43205  1  0
 44206  1  1
 45207  1  0
 45208  1  0
 46209  1  0
 46210  1  0
 52211  1  0
 53212  1  1
 54213  1  0
 54214  1  0
 54215  1  0
 57216  1  0
 59217  1  0
 59218  1  0
 60219  1  0
 60220  1  0
 61221  1  0
 61222  1  0
 62223  1  0
 62224  1  0
 63225  1  0
 63226  1  0
 64227  1  0
 64228  1  0
 65229  1  0
 66230  1  0
 66231  1  0
 66232  1  0
 69233  1  0
 70234  1  6
 71235  1  0
 71236  1  0
 72237  1  0
 72238  1  0
 73239  1  0
 73240  1  0
 74241  1  0
 74242  1  0
 75243  1  0
 75244  1  0
 75245  1  0
 78246  1  0
 79247  1  6
 80248  1  0
 80249  1  0
 81250  1  0
 81251  1  0
 82252  1  0
 82253  1  0
 83254  1  0
 85255  1  0
 85256  1  0
 86257  1  0
 86258  1  0
 89259  1  0
 90260  1  6
 91261  1  0
 91262  1  0
 92263  1  0
 92264  1  0
 93265  1  0
 93266  1  0
 94267  1  0
 96268  1  0
 96269  1  0
 97270  1  0
 97271  1  0
100272  1  0
101273  1  6
102274  1  0
102275  1  0
102276  1  0
105277  1  0
106278  1  6
107279  1  0
107280  1  0
109281  1  0
110282  1  0
111283  1  0
115284  1  0
116285  1  6
117286  1  0
117287  1  0
117288  1  0
120289  1  0
122290  1  0
122291  1  0
123292  1  0
123293  1  0
124294  1  0
124295  1  0
125296  1  0
126297  1  0
126298  1  0
126299  1  0
129300  1  0
130301  1  1
131302  1  0
131303  1  0
131304  1  0
134305  1  0
135306  1  6
136307  1  0
136308  1  0
137309  1  0
137310  1  0
143311  1  0
144312  1  1
145313  1  0
145314  1  0
146315  1  0
146316  1  0
147317  1  0
147318  1  0
148319  1  0
150320  1  0
150321  1  0
151322  1  0
151323  1  0
154324  1  0
155325  1  6
156326  1  0
156327  1  0
156328  1  0
159329  1  0
160330  1  1
161331  1  0
161332  1  0
162333  1  0
162334  1  0
163335  1  0
163336  1  0
164337  1  0
166338  1  0
166339  1  0
167340  1  0
167341  1  0
170342  1  0
171343  1  6
172344  1  0
172345  1  0
173346  1  0
173347  1  0
174348  1  0
174349  1  0
175350  1  0
177351  1  0
177352  1  0
178353  1  0
178354  1  0
M  CHG  8  40  -1  49  -1  75   1  85   1  96   1 140  -1 150   1 166   1
M  CHG  2 177   1 181  -1
M  END
