
     RDKit          2D

395403  0  0  0  0  0  0  0  0999 V2000
   21.9404   -4.2481    0.0000 C   0  0  0  0  0  0  0  0  0  0  0  0
   23.4369   -4.1466    0.0000 N   0  0  0  0  0  0  0  0  0  0  0  0
   24.2731   -5.3919    0.0000 C   0  0  0  0  0  0  0  0  0  0  0  0
   23.6127   -6.7387    0.0000 C   0  0  0  0  0  0  0  0  0  0  0  0
   24.4489   -7.9840    0.0000 C   0  0  0  0  0  0  0  0  0  0  0  0
   25.9455   -7.8825    0.0000 C   0  0  0  0  0  0  0  0  0  0  0  0
   26.6059   -6.5357    0.0000 C   0  0  0  0  0  0  0  0  0  0  0  0
   25.7697   -5.2904    0.0000 C   0  0  0  0  0  0  0  0  0  0  0  0
   28.0908   -6.7475    0.0000 C   0  0  0  0  0  0  0  0  0  0  0  0
   28.3482   -8.2253    0.0000 O   0  0  0  0  0  0  0  0  0  0  0  0
   27.0223   -8.9267    0.0000 C   0  0  0  0  0  0  0  0  0  0  0  0
   26.8105  -10.4117    0.0000 O   0  0  0  0  0  0  0  0  0  0  0  0
   29.5455   -7.1135    0.0000 C   0  0  0  0  0  0  0  0  0  0  0  0
   30.5898   -6.0366    0.0000 C   0  0  0  0  0  0  0  0  0  0  0  0
   32.0444   -6.4026    0.0000 C   0  0  0  0  0  0  0  0  0  0  0  0
   32.4549   -7.8453    0.0000 C   0  0  0  0  0  0  0  0  0  0  0  0
   31.4106   -8.9221    0.0000 C   0  0  0  0  0  0  0  0  0  0  0  0
   29.9560   -8.5562    0.0000 C   0  0  0  0  0  0  0  0  0  0  0  0
   33.9096   -8.2112    0.0000 O   0  0  0  0  0  0  0  0  0  0  0  0
   30.1793   -4.5939    0.0000 O   0  0  0  0  0  0  0  0  0  0  0  0
   28.7246   -4.2280    0.0000 C   0  0  0  0  0  0  0  0  0  0  0  0
   27.6804   -5.3048    0.0000 C   0  0  0  0  0  0  0  0  0  0  0  0
   26.7130   -4.4363    0.0000 C   0  0  0  0  0  0  0  0  0  0  0  0
   26.4941   -3.6669    0.0000 C   0  0  0  0  0  0  0  0  0  0  0  0
   27.0511   -3.0926    0.0000 C   0  0  0  0  0  0  0  0  0  0  0  0
   27.8269   -3.2877    0.0000 C   0  0  0  0  0  0  0  0  0  0  0  0
   26.4491   -0.9765    0.0000 O   0  0  0  0  0  0  0  0  0  0  0  0
   21.4491   -5.6653    0.0000 S   0  0  0  0  0  0  0  0  0  0  0  0
   21.1042   -3.0028    0.0000 N   0  0  0  0  0  0  0  0  0  0  0  0
   19.6076   -3.1043    0.0000 C   0  0  0  0  0  0  0  0  0  0  0  0
   18.7714   -1.8589    0.0000 C   0  0  0  0  0  0  0  0  0  0  0  0
   17.2749   -1.9605    0.0000 C   0  0  0  0  0  0  0  0  0  0  0  0
   17.1076   -2.7399    0.0000 O   0  0  0  0  0  0  0  0  0  0  0  0
   16.4387   -0.7151    0.0000 N   0  0  0  0  0  0  0  0  0  0  0  0
   14.9421   -0.8166    0.0000 C   0  0  0  0  0  0  0  0  0  0  0  0
   15.3020   -2.2728    0.0000 C   0  0  0  0  0  0  0  0  0  0  0  0
   16.7430   -2.6893    0.0000 C   0  0  0  0  0  0  0  0  0  0  0  0
   17.1028   -4.1455    0.0000 C   0  0  0  0  0  0  0  0  0  0  0  0
   18.5439   -4.5620    0.0000 N   0  0  0  0  0  0  0  0  0  0  0  0
   18.9037   -6.0182    0.0000 C   0  0  0  0  0  0  0  0  0  0  0  0
   20.3447   -6.4347    0.0000 N   0  0  0  0  0  0  0  0  0  0  0  0
   17.8225   -7.0579    0.0000 N   0  0  0  0  0  0  0  0  0  0  0  0
   13.5011   -0.4002    0.0000 C   0  0  0  0  0  0  0  0  0  0  0  0
   12.7036   -1.6706    0.0000 O   0  0  0  0  0  0  0  0  0  0  0  0
   13.1413    1.0560    0.0000 N   0  0  0  0  0  0  0  0  0  0  0  0
   11.7002    1.4725    0.0000 C   0  0  0  0  0  0  0  0  0  0  0  0
   11.5403   -0.0190    0.0000 C   0  0  0  0  0  0  0  0  0  0  0  0
   12.7520   -0.9032    0.0000 C   0  0  0  0  0  0  0  0  0  0  0  0
   12.5921   -2.3946    0.0000 C   0  0  0  0  0  0  0  0  0  0  0  0
   13.6870   -3.4199    0.0000 N   0  0  0  0  0  0  0  0  0  0  0  0
   11.2205   -3.0019    0.0000 O   0  0  0  0  0  0  0  0  0  0  0  0
   10.4886    2.3567    0.0000 C   0  0  0  0  0  0  0  0  0  0  0  0
    9.4258    1.2982    0.0000 O   0  0  0  0  0  0  0  0  0  0  0  0
   10.6485    3.8482    0.0000 N   0  0  0  0  0  0  0  0  0  0  0  0
    9.4368    4.7324    0.0000 C   0  0  0  0  0  0  0  0  0  0  0  0
    9.1292    3.2643    0.0000 C   0  0  0  0  0  0  0  0  0  0  0  0
    8.4025    1.9520    0.0000 C   0  0  0  0  0  0  0  0  0  0  0  0
    7.3213    0.9123    0.0000 C   0  0  0  0  0  0  0  0  0  0  0  0
    5.9817    0.2375    0.0000 C   0  0  0  0  0  0  0  0  0  0  0  0
   10.7411    5.4732    0.0000 C   0  0  0  0  0  0  0  0  0  0  0  0
    9.2980    6.2259    0.0000 C   0  0  0  0  0  0  0  0  0  0  0  0
   10.7542    6.5858    0.0000 O   0  0  0  0  0  0  0  0  0  0  0  0
    8.7252    7.6122    0.0000 N   0  0  0  0  0  0  0  0  0  0  0  0
    7.7691    8.7681    0.0000 C   0  0  0  0  0  0  0  0  0  0  0  0
    8.0032   10.2497    0.0000 C   0  0  0  0  0  0  0  0  0  0  0  0
    9.4034   10.7879    0.0000 C   0  0  0  0  0  0  0  0  0  0  0  0
    9.6374   12.2695    0.0000 C   0  0  0  0  0  0  0  0  0  0  0  0
   11.0376   12.8076    0.0000 C   0  0  0  0  0  0  0  0  0  0  0  0
   11.2716   14.2892    0.0000 N   0  0  0  0  0  0  0  0  0  0  0  0
    6.5149    9.5908    0.0000 C   0  0  0  0  0  0  0  0  0  0  0  0
    7.1415   10.9537    0.0000 O   0  0  0  0  0  0  0  0  0  0  0  0
    5.0739   10.0073    0.0000 N   0  0  0  0  0  0  0  0  0  0  0  0
    3.5741    9.9805    0.0000 C   0  0  0  0  0  0  0  0  0  0  0  0
    2.5617   11.0873    0.0000 C   0  0  0  0  0  0  0  0  0  0  0  0
    3.1849   12.4517    0.0000 C   0  0  0  0  0  0  0  0  0  0  0  0
    1.2317   11.7810    0.0000 C   0  0  0  0  0  0  0  0  0  0  0  0
    1.3507   13.2763    0.0000 C   0  0  0  0  0  0  0  0  0  0  0  0
    2.1489    9.5129    0.0000 C   0  0  0  0  0  0  0  0  0  0  0  0
    1.3158   10.7602    0.0000 O   0  0  0  0  0  0  0  0  0  0  0  0
    0.9248    8.6459    0.0000 N   0  0  0  0  0  0  0  0  0  0  0  0
    0.0107    7.4566    0.0000 C   0  0  0  0  0  0  0  0  0  0  0  0
   -1.4859    7.3551    0.0000 C   0  0  0  0  0  0  0  0  0  0  0  0
   -2.3221    8.6004    0.0000 C   0  0  0  0  0  0  0  0  0  0  0  0
   -3.8211    8.6559    0.0000 C   0  0  0  0  0  0  0  0  0  0  0  0
   -4.2315   10.0987    0.0000 N   0  0  0  0  0  0  0  0  0  0  0  0
   -2.9862   10.9349    0.0000 C   0  0  0  0  0  0  0  0  0  0  0  0
   -2.7743   12.4198    0.0000 C   0  0  0  0  0  0  0  0  0  0  0  0
   -1.3824   12.9788    0.0000 C   0  0  0  0  0  0  0  0  0  0  0  0
   -0.2023   12.0529    0.0000 C   0  0  0  0  0  0  0  0  0  0  0  0
   -0.4142   10.5679    0.0000 C   0  0  0  0  0  0  0  0  0  0  0  0
   -1.8061   10.0089    0.0000 C   0  0  0  0  0  0  0  0  0  0  0  0
   -0.5123    6.0508    0.0000 C   0  0  0  0  0  0  0  0  0  0  0  0
   -1.7726    6.8642    0.0000 O   0  0  0  0  0  0  0  0  0  0  0  0
   -0.5977    4.5532    0.0000 N   0  0  0  0  0  0  0  0  0  0  0  0
   -0.2379    3.0970    0.0000 C   0  0  0  0  0  0  0  0  0  0  0  0
    0.5352    1.8116    0.0000 C   0  0  0  0  0  0  0  0  0  0  0  0
    1.6528    0.8111    0.0000 C   0  0  0  0  0  0  0  0  0  0  0  0
    3.0157    0.1845    0.0000 C   0  0  0  0  0  0  0  0  0  0  0  0
    4.5027   -0.0125    0.0000 C   0  0  0  0  0  0  0  0  0  0  0  0
    0.2006    1.6625    0.0000 C   0  0  0  0  0  0  0  0  0  0  0  0
    0.3597    0.1710    0.0000 C   0  0  0  0  0  0  0  0  0  0  0  0
    0.2336   -1.3237    0.0000 C   0  0  0  0  0  0  0  0  0  0  0  0
   -0.1730   -2.7675    0.0000 C   0  0  0  0  0  0  0  0  0  0  0  0
   -0.9399    4.4226    0.0000 C   0  0  0  0  0  0  0  0  0  0  0  0
    0.3129    5.2474    0.0000 O   0  0  0  0  0  0  0  0  0  0  0  0
   -1.8801    5.5913    0.0000 N   0  0  0  0  0  0  0  0  0  0  0  0
   -3.0245    6.5610    0.0000 C   0  0  0  0  0  0  0  0  0  0  0  0
   -2.9460    8.0590    0.0000 C   0  0  0  0  0  0  0  0  0  0  0  0
   -4.2039    8.8760    0.0000 C   0  0  0  0  0  0  0  0  0  0  0  0
   -4.1253   10.3739    0.0000 C   0  0  0  0  0  0  0  0  0  0  0  0
   -5.1482   11.4711    0.0000 N   0  0  0  0  0  0  0  0  0  0  0  0
   -2.9933   11.3580    0.0000 O   0  0  0  0  0  0  0  0  0  0  0  0
   -4.3318    7.2966    0.0000 C   0  0  0  0  0  0  0  0  0  0  0  0
   -4.4389    8.7928    0.0000 O   0  0  0  0  0  0  0  0  0  0  0  0
   -5.7546    7.7715    0.0000 N   0  0  0  0  0  0  0  0  0  0  0  0
   -7.2416    7.9686    0.0000 C   0  0  0  0  0  0  0  0  0  0  0  0
   -7.9854    9.2712    0.0000 C   0  0  0  0  0  0  0  0  0  0  0  0
   -7.2291   10.5666    0.0000 C   0  0  0  0  0  0  0  0  0  0  0  0
   -7.9729   11.8693    0.0000 N   0  0  0  0  0  0  0  0  0  0  0  0
   -5.7720   10.9226    0.0000 O   0  0  0  0  0  0  0  0  0  0  0  0
   -8.7391    7.8806    0.0000 C   0  0  0  0  0  0  0  0  0  0  0  0
   -9.1479    9.3239    0.0000 O   0  0  0  0  0  0  0  0  0  0  0  0
  -10.1928    7.5109    0.0000 N   0  0  0  0  0  0  0  0  0  0  0  0
  -11.5502    6.8727    0.0000 C   0  0  0  0  0  0  0  0  0  0  0  0
  -12.8802    7.5665    0.0000 C   0  0  0  0  0  0  0  0  0  0  0  0
  -12.9443    9.0651    0.0000 C   0  0  0  0  0  0  0  0  0  0  0  0
  -14.2743    9.7589    0.0000 C   0  0  0  0  0  0  0  0  0  0  0  0
  -14.3384   11.2575    0.0000 N   0  0  0  0  0  0  0  0  0  0  0  0
  -15.6684   11.9512    0.0000 C   0  0  0  0  0  0  0  0  0  0  0  0
  -15.7325   13.4499    0.0000 N   0  0  0  0  0  0  0  0  0  0  0  0
  -16.9341   11.1464    0.0000 N   0  0  0  0  0  0  0  0  0  0  0  0
  -12.7624    5.9892    0.0000 C   0  0  0  0  0  0  0  0  0  0  0  0
  -13.8866    6.9823    0.0000 O   0  0  0  0  0  0  0  0  0  0  0  0
  -13.7855    4.8922    0.0000 N   0  0  0  0  0  0  0  0  0  0  0  0
  -14.5824    3.6215    0.0000 C   0  0  0  0  0  0  0  0  0  0  0  0
  -16.0763    3.4861    0.0000 C   0  0  0  0  0  0  0  0  0  0  0  0
  -16.9405    4.7121    0.0000 C   0  0  0  0  0  0  0  0  0  0  0  0
  -18.4344    4.5767    0.0000 C   0  0  0  0  0  0  0  0  0  0  0  0
  -19.2986    5.8027    0.0000 N   0  0  0  0  0  0  0  0  0  0  0  0
  -20.7925    5.6673    0.0000 C   0  0  0  0  0  0  0  0  0  0  0  0
  -21.6567    6.8934    0.0000 N   0  0  0  0  0  0  0  0  0  0  0  0
  -21.4221    4.3059    0.0000 N   0  0  0  0  0  0  0  0  0  0  0  0
  -15.1245    2.2228    0.0000 C   0  0  0  0  0  0  0  0  0  0  0  0
  -16.6071    2.4505    0.0000 O   0  0  0  0  0  0  0  0  0  0  0  0
  -15.3921    0.7469    0.0000 N   0  0  0  0  0  0  0  0  0  0  0  0
  -15.3755   -0.7530    0.0000 C   0  0  0  0  0  0  0  0  0  0  0  0
  -16.5590   -1.6746    0.0000 C   0  0  0  0  0  0  0  0  0  0  0  0
  -17.9489   -1.1104    0.0000 C   0  0  0  0  0  0  0  0  0  0  0  0
  -19.1324   -2.0319    0.0000 S   0  0  0  0  0  0  0  0  0  0  0  0
  -20.5223   -1.4677    0.0000 C   0  0  0  0  0  0  0  0  0  0  0  0
  -15.0754   -2.2227    0.0000 C   0  0  0  0  0  0  0  0  0  0  0  0
  -16.4457   -2.8328    0.0000 O   0  0  0  0  0  0  0  0  0  0  0  0
  -14.5025   -3.6090    0.0000 N   0  0  0  0  0  0  0  0  0  0  0  0
  -13.6776   -4.8618    0.0000 C   0  0  0  0  0  0  0  0  0  0  0  0
  -14.1751   -6.2769    0.0000 C   0  0  0  0  0  0  0  0  0  0  0  0
  -15.6493   -6.5537    0.0000 C   0  0  0  0  0  0  0  0  0  0  0  0
  -16.1467   -7.9689    0.0000 C   0  0  0  0  0  0  0  0  0  0  0  0
  -17.6210   -8.2456    0.0000 C   0  0  0  0  0  0  0  0  0  0  0  0
  -18.1184   -9.6608    0.0000 N   0  0  0  0  0  0  0  0  0  0  0  0
  -12.6306   -5.9359    0.0000 C   0  0  0  0  0  0  0  0  0  0  0  0
  -13.4536   -7.1900    0.0000 O   0  0  0  0  0  0  0  0  0  0  0  0
  -11.3992   -6.7924    0.0000 N   0  0  0  0  0  0  0  0  0  0  0  0
  -10.0279   -7.4004    0.0000 C   0  0  0  0  0  0  0  0  0  0  0  0
   -8.5664   -7.7379    0.0000 C   0  0  0  0  0  0  0  0  0  0  0  0
   -7.0674   -7.7928    0.0000 C   0  0  0  0  0  0  0  0  0  0  0  0
   -5.5851   -7.5629    0.0000 C   0  0  0  0  0  0  0  0  0  0  0  0
   -4.1731   -7.0566    0.0000 C   0  0  0  0  0  0  0  0  0  0  0  0
   -2.8824   -6.2923    0.0000 C   0  0  0  0  0  0  0  0  0  0  0  0
   -1.7598   -5.2976    0.0000 C   0  0  0  0  0  0  0  0  0  0  0  0
   -0.8456   -4.1083    0.0000 C   0  0  0  0  0  0  0  0  0  0  0  0
  -11.1816   -8.3591    0.0000 C   0  0  0  0  0  0  0  0  0  0  0  0
   -9.6813   -8.8598    0.0000 C   0  0  0  0  0  0  0  0  0  0  0  0
   -8.3908   -9.6244    0.0000 O   0  0  0  0  0  0  0  0  0  0  0  0
  -10.7719   -9.8897    0.0000 N   0  0  0  0  0  0  0  0  0  0  0  0
  -10.4253  -11.3491    0.0000 C   0  0  0  0  0  0  0  0  0  0  0  0
   -9.6004  -12.6020    0.0000 C   0  0  0  0  0  0  0  0  0  0  0  0
  -10.2730  -13.9427    0.0000 C   0  0  0  0  0  0  0  0  0  0  0  0
   -9.4481  -15.1956    0.0000 C   0  0  0  0  0  0  0  0  0  0  0  0
  -10.1207  -16.5363    0.0000 C   0  0  0  0  0  0  0  0  0  0  0  0
   -9.2958  -17.7892    0.0000 N   0  0  0  0  0  0  0  0  0  0  0  0
  -11.5158  -12.3790    0.0000 C   0  0  0  0  0  0  0  0  0  0  0  0
  -12.9530  -11.9495    0.0000 O   0  0  0  0  0  0  0  0  0  0  0  0
  -11.1692  -13.8384    0.0000 N   0  0  0  0  0  0  0  0  0  0  0  0
  -12.2598  -14.8683    0.0000 C   0  0  0  0  0  0  0  0  0  0  0  0
  -13.6368  -15.4631    0.0000 C   0  0  0  0  0  0  0  0  0  0  0  0
  -14.8404  -14.5679    0.0000 C   0  0  0  0  0  0  0  0  0  0  0  0
  -16.2175  -15.1627    0.0000 C   0  0  0  0  0  0  0  0  0  0  0  0
  -17.4211  -14.2675    0.0000 C   0  0  0  0  0  0  0  0  0  0  0  0
  -18.7981  -14.8623    0.0000 N   0  0  0  0  0  0  0  0  0  0  0  0
  -11.9132  -16.3277    0.0000 C   0  0  0  0  0  0  0  0  0  0  0  0
  -12.8701  -17.4828    0.0000 O   0  0  0  0  0  0  0  0  0  0  0  0
  -10.6226  -17.0922    0.0000 O   0  0  0  0  0  0  0  0  0  0  0  0
   23.9282   -2.7293    0.0000 H   0  0  0  0  0  0  0  0  0  0  0  0
   22.1162   -6.8402    0.0000 H   0  0  0  0  0  0  0  0  0  0  0  0
   23.7886   -9.3308    0.0000 H   0  0  0  0  0  0  0  0  0  0  0  0
   26.0845   -3.8238    0.0000 H   0  0  0  0  0  0  0  0  0  0  0  0
   33.0887   -5.3257    0.0000 H   0  0  0  0  0  0  0  0  0  0  0  0
   31.8211  -10.3649    0.0000 H   0  0  0  0  0  0  0  0  0  0  0  0
   28.9117   -9.6330    0.0000 H   0  0  0  0  0  0  0  0  0  0  0  0
   34.3200   -9.6540    0.0000 H   0  0  0  0  0  0  0  0  0  0  0  0
   25.1815   -6.0157    0.0000 H   0  0  0  0  0  0  0  0  0  0  0  0
   24.4160   -2.9556    0.0000 H   0  0  0  0  0  0  0  0  0  0  0  0
   29.3584   -1.7084    0.0000 H   0  0  0  0  0  0  0  0  0  0  0  0
   27.4933    0.1003    0.0000 H   0  0  0  0  0  0  0  0  0  0  0  0
   21.7646   -1.6559    0.0000 H   0  0  0  0  0  0  0  0  0  0  0  0
   19.9675   -4.5605    0.0000 H   0  0  0  0  0  0  0  0  0  0  0  0
   18.4237   -4.0253    0.0000 H   0  0  0  0  0  0  0  0  0  0  0  0
   20.1430   -1.2517    0.0000 H   0  0  0  0  0  0  0  0  0  0  0  0
   18.4116   -0.4027    0.0000 H   0  0  0  0  0  0  0  0  0  0  0  0
   17.0991    0.6317    0.0000 H   0  0  0  0  0  0  0  0  0  0  0  0
   15.1020    0.6748    0.0000 H   0  0  0  0  0  0  0  0  0  0  0  0
   14.9614   -3.7337    0.0000 H   0  0  0  0  0  0  0  0  0  0  0  0
   13.8289   -2.5560    0.0000 H   0  0  0  0  0  0  0  0  0  0  0  0
   18.2396   -2.5878    0.0000 H   0  0  0  0  0  0  0  0  0  0  0  0
   17.2590   -1.2809    0.0000 H   0  0  0  0  0  0  0  0  0  0  0  0
   16.9429   -5.6370    0.0000 H   0  0  0  0  0  0  0  0  0  0  0  0
   15.6298   -4.4287    0.0000 H   0  0  0  0  0  0  0  0  0  0  0  0
   19.8445   -3.8148    0.0000 H   0  0  0  0  0  0  0  0  0  0  0  0
   20.7046   -7.8909    0.0000 H   0  0  0  0  0  0  0  0  0  0  0  0
   21.5446   -5.5345    0.0000 H   0  0  0  0  0  0  0  0  0  0  0  0
   18.1823   -8.5141    0.0000 H   0  0  0  0  0  0  0  0  0  0  0  0
   16.3815   -6.6414    0.0000 H   0  0  0  0  0  0  0  0  0  0  0  0
   14.2225    2.0958    0.0000 H   0  0  0  0  0  0  0  0  0  0  0  0
   12.3606    2.8193    0.0000 H   0  0  0  0  0  0  0  0  0  0  0  0
   10.8800   -1.3658    0.0000 H   0  0  0  0  0  0  0  0  0  0  0  0
   10.0993    0.3975    0.0000 H   0  0  0  0  0  0  0  0  0  0  0  0
   14.1930   -1.3196    0.0000 H   0  0  0  0  0  0  0  0  0  0  0  0
   13.7187    0.2438    0.0000 H   0  0  0  0  0  0  0  0  0  0  0  0
   13.6439   -4.7703    0.0000 H   0  0  0  0  0  0  0  0  0  0  0  0
   15.3122   -3.0540    0.0000 H   0  0  0  0  0  0  0  0  0  0  0  0
   12.0839    4.2837    0.0000 H   0  0  0  0  0  0  0  0  0  0  0  0
   10.6286    3.2236    0.0000 H   0  0  0  0  0  0  0  0  0  0  0  0
    9.8732    1.9618    0.0000 H   0  0  0  0  0  0  0  0  0  0  0  0
    9.6648    1.1417    0.0000 H   0  0  0  0  0  0  0  0  0  0  0  0
    9.0740    0.6108    0.0000 H   0  0  0  0  0  0  0  0  0  0  0  0
    8.6353    0.1889    0.0000 H   0  0  0  0  0  0  0  0  0  0  0  0
    7.3855   -0.5863    0.0000 H   0  0  0  0  0  0  0  0  0  0  0  0
    6.4493   -1.1878    0.0000 H   0  0  0  0  0  0  0  0  0  0  0  0
   12.1177    4.8773    0.0000 H   0  0  0  0  0  0  0  0  0  0  0  0
   11.7134    6.6154    0.0000 H   0  0  0  0  0  0  0  0  0  0  0  0
   10.0932    6.8260    0.0000 H   0  0  0  0  0  0  0  0  0  0  0  0
   10.0106    8.3853    0.0000 H   0  0  0  0  0  0  0  0  0  0  0  0
    9.2534    8.9848    0.0000 H   0  0  0  0  0  0  0  0  0  0  0  0
    7.5391   11.6761    0.0000 H   0  0  0  0  0  0  0  0  0  0  0  0
    6.5415   10.5867    0.0000 H   0  0  0  0  0  0  0  0  0  0  0  0
   10.8952   10.6316    0.0000 H   0  0  0  0  0  0  0  0  0  0  0  0
    9.8675    9.3615    0.0000 H   0  0  0  0  0  0  0  0  0  0  0  0
    9.1733   13.6959    0.0000 H   0  0  0  0  0  0  0  0  0  0  0  0
    8.1456   12.4257    0.0000 H   0  0  0  0  0  0  0  0  0  0  0  0
   12.5373   12.8344    0.0000 H   0  0  0  0  0  0  0  0  0  0  0  0
   11.5017   11.3812    0.0000 H   0  0  0  0  0  0  0  0  0  0  0  0
   12.6718   14.8273    0.0000 H   0  0  0  0  0  0  0  0  0  0  0  0
   10.9848   15.7615    0.0000 H   0  0  0  0  0  0  0  0  0  0  0  0
    9.7798   14.4455    0.0000 H   0  0  0  0  0  0  0  0  0  0  0  0
    5.2709   11.4943    0.0000 H   0  0  0  0  0  0  0  0  0  0  0  0
    4.3301   11.2761    0.0000 H   0  0  0  0  0  0  0  0  0  0  0  0
    1.3869   10.1546    0.0000 H   0  0  0  0  0  0  0  0  0  0  0  0
    2.1532   13.7598    0.0000 H   0  0  0  0  0  0  0  0  0  0  0  0
    3.9281   13.7067    0.0000 H   0  0  0  0  0  0  0  0  0  0  0  0
    4.4185   11.9910    0.0000 H   0  0  0  0  0  0  0  0  0  0  0  0
   -0.1634   12.3320    0.0000 H   0  0  0  0  0  0  0  0  0  0  0  0
    0.7795   10.3508    0.0000 H   0  0  0  0  0  0  0  0  0  0  0  0
   -0.1624   13.9734    0.0000 H   0  0  0  0  0  0  0  0  0  0  0  0
    1.6198   14.7099    0.0000 H   0  0  0  0  0  0  0  0  0  0  0  0
    2.6581   13.4483    0.0000 H   0  0  0  0  0  0  0  0  0  0  0  0
    0.0246    9.8458    0.0000 H   0  0  0  0  0  0  0  0  0  0  0  0
   -0.6974    8.7790    0.0000 H   0  0  0  0  0  0  0  0  0  0  0  0
   -2.9637    7.0978    0.0000 H   0  0  0  0  0  0  0  0  0  0  0  0
   -1.6719    5.8667    0.0000 H   0  0  0  0  0  0  0  0  0  0  0  0
   -4.8840    7.5975    0.0000 H   0  0  0  0  0  0  0  0  0  0  0  0
   -5.6400   10.6147    0.0000 H   0  0  0  0  0  0  0  0  0  0  0  0
   -3.9544   13.3458    0.0000 H   0  0  0  0  0  0  0  0  0  0  0  0
   -1.1705   14.4638    0.0000 H   0  0  0  0  0  0  0  0  0  0  0  0
    1.1111   12.7774    0.0000 H   0  0  0  0  0  0  0  0  0  0  0  0
    0.7659    9.6419    0.0000 H   0  0  0  0  0  0  0  0  0  0  0  0
   -2.0913    4.4144    0.0000 H   0  0  0  0  0  0  0  0  0  0  0  0
    0.2606    0.3369    0.0000 H   0  0  0  0  0  0  0  0  0  0  0  0
   -0.9544    1.6356    0.0000 H   0  0  0  0  0  0  0  0  0  0  0  0
    1.8251   -0.6790    0.0000 H   0  0  0  0  0  0  0  0  0  0  0  0
    0.5900   -0.2474    0.0000 H   0  0  0  0  0  0  0  0  0  0  0  0
    3.4476   -1.2520    0.0000 H   0  0  0  0  0  0  0  0  0  0  0  0
    2.3121   -1.1403    0.0000 H   0  0  0  0  0  0  0  0  0  0  0  0
    4.5295   -1.5123    0.0000 H   0  0  0  0  0  0  0  0  0  0  0  0
    1.2912    2.6924    0.0000 H   0  0  0  0  0  0  0  0  0  0  0  0
    1.5338    0.9751    0.0000 H   0  0  0  0  0  0  0  0  0  0  0  0
    1.8299    0.4687    0.0000 H   0  0  0  0  0  0  0  0  0  0  0  0
    1.5387   -0.7564    0.0000 H   0  0  0  0  0  0  0  0  0  0  0  0
    1.7336   -1.3096    0.0000 H   0  0  0  0  0  0  0  0  0  0  0  0
    1.3467   -2.3292    0.0000 H   0  0  0  0  0  0  0  0  0  0  0  0
    1.2256   -3.3096    0.0000 H   0  0  0  0  0  0  0  0  0  0  0  0
   -0.9417    6.7615    0.0000 H   0  0  0  0  0  0  0  0  0  0  0  0
   -1.8323    7.4713    0.0000 H   0  0  0  0  0  0  0  0  0  0  0  0
   -2.7113    9.5405    0.0000 H   0  0  0  0  0  0  0  0  0  0  0  0
   -1.5365    7.5458    0.0000 H   0  0  0  0  0  0  0  0  0  0  0  0
   -5.5404    9.5571    0.0000 H   0  0  0  0  0  0  0  0  0  0  0  0
   -5.2461    7.7971    0.0000 H   0  0  0  0  0  0  0  0  0  0  0  0
   -5.3047   12.6889    0.0000 H   0  0  0  0  0  0  0  0  0  0  0  0
   -6.9057   10.9189    0.0000 H   0  0  0  0  0  0  0  0  0  0  0  0
   -5.5978    9.2633    0.0000 H   0  0  0  0  0  0  0  0  0  0  0  0
   -6.5627    9.3061    0.0000 H   0  0  0  0  0  0  0  0  0  0  0  0
   -9.0030   10.3732    0.0000 H   0  0  0  0  0  0  0  0  0  0  0  0
   -9.3367    8.6202    0.0000 H   0  0  0  0  0  0  0  0  0  0  0  0
   -7.2166   13.1647    0.0000 H   0  0  0  0  0  0  0  0  0  0  0  0
   -9.4728   11.8765    0.0000 H   0  0  0  0  0  0  0  0  0  0  0  0
  -10.5231    8.9741    0.0000 H   0  0  0  0  0  0  0  0  0  0  0  0
  -11.3367    8.3575    0.0000 H   0  0  0  0  0  0  0  0  0  0  0  0
  -14.3672    7.7635    0.0000 H   0  0  0  0  0  0  0  0  0  0  0  0
  -13.6651    6.2882    0.0000 H   0  0  0  0  0  0  0  0  0  0  0  0
  -12.4921   10.4953    0.0000 H   0  0  0  0  0  0  0  0  0  0  0  0
  -11.4538    9.2337    0.0000 H   0  0  0  0  0  0  0  0  0  0  0  0
  -15.7613    9.9559    0.0000 H   0  0  0  0  0  0  0  0  0  0  0  0
  -14.8975    8.3945    0.0000 H   0  0  0  0  0  0  0  0  0  0  0  0
  -13.0727   12.0624    0.0000 H   0  0  0  0  0  0  0  0  0  0  0  0
  -17.0625   14.1436    0.0000 H   0  0  0  0  0  0  0  0  0  0  0  0
  -14.4668   14.2547    0.0000 H   0  0  0  0  0  0  0  0  0  0  0  0
  -18.2641   11.8401    0.0000 H   0  0  0  0  0  0  0  0  0  0  0  0
  -16.8700    9.6477    0.0000 H   0  0  0  0  0  0  0  0  0  0  0  0
  -14.8544    5.9445    0.0000 H   0  0  0  0  0  0  0  0  0  0  0  0
  -15.2054    4.9860    0.0000 H   0  0  0  0  0  0  0  0  0  0  0  0
  -17.4338    2.8479    0.0000 H   0  0  0  0  0  0  0  0  0  0  0  0
  -16.0455    1.9864    0.0000 H   0  0  0  0  0  0  0  0  0  0  0  0
  -17.3333    6.1598    0.0000 H   0  0  0  0  0  0  0  0  0  0  0  0
  -15.7778    5.6598    0.0000 H   0  0  0  0  0  0  0  0  0  0  0  0
  -19.7919    3.9385    0.0000 H   0  0  0  0  0  0  0  0  0  0  0  0
  -18.2210    3.0920    0.0000 H   0  0  0  0  0  0  0  0  0  0  0  0
  -18.6689    7.1642    0.0000 H   0  0  0  0  0  0  0  0  0  0  0  0
  -23.1505    6.7580    0.0000 H   0  0  0  0  0  0  0  0  0  0  0  0
  -21.0270    8.2548    0.0000 H   0  0  0  0  0  0  0  0  0  0  0  0
  -22.9160    4.1705    0.0000 H   0  0  0  0  0  0  0  0  0  0  0  0
  -20.5579    3.0799    0.0000 H   0  0  0  0  0  0  0  0  0  0  0  0
  -16.8603    1.0542    0.0000 H   0  0  0  0  0  0  0  0  0  0  0  0
  -16.6373    0.0580    0.0000 H   0  0  0  0  0  0  0  0  0  0  0  0
  -17.5049   -2.8387    0.0000 H   0  0  0  0  0  0  0  0  0  0  0  0
  -15.7223   -2.9195    0.0000 H   0  0  0  0  0  0  0  0  0  0  0  0
  -18.9311    0.0233    0.0000 H   0  0  0  0  0  0  0  0  0  0  0  0
  -17.4831    0.3155    0.0000 H   0  0  0  0  0  0  0  0  0  0  0  0
  -21.7058   -2.3893    0.0000 H   0  0  0  0  0  0  0  0  0  0  0  0
  -21.6353   -0.4622    0.0000 H   0  0  0  0  0  0  0  0  0  0  0  0
  -19.8861   -0.1093    0.0000 H   0  0  0  0  0  0  0  0  0  0  0  0
  -15.9038   -4.1442    0.0000 H   0  0  0  0  0  0  0  0  0  0  0  0
  -15.1776   -4.8617    0.0000 H   0  0  0  0  0  0  0  0  0  0  0  0
  -14.1585   -7.7769    0.0000 H   0  0  0  0  0  0  0  0  0  0  0  0
  -12.7981   -6.8719    0.0000 H   0  0  0  0  0  0  0  0  0  0  0  0
  -17.0885   -6.1310    0.0000 H   0  0  0  0  0  0  0  0  0  0  0  0
  -16.0283   -5.1024    0.0000 H   0  0  0  0  0  0  0  0  0  0  0  0
  -15.9474   -9.4556    0.0000 H   0  0  0  0  0  0  0  0  0  0  0  0
  -14.7075   -8.3916    0.0000 H   0  0  0  0  0  0  0  0  0  0  0  0
  -19.1010   -8.0015    0.0000 H   0  0  0  0  0  0  0  0  0  0  0  0
  -17.8203   -6.7589    0.0000 H   0  0  0  0  0  0  0  0  0  0  0  0
  -19.5926   -9.9376    0.0000 H   0  0  0  0  0  0  0  0  0  0  0  0
  -18.1018  -11.1607    0.0000 H   0  0  0  0  0  0  0  0  0  0  0  0
  -16.6792  -10.0835    0.0000 H   0  0  0  0  0  0  0  0  0  0  0  0
  -12.2886   -8.0003    0.0000 H   0  0  0  0  0  0  0  0  0  0  0  0
   -7.9498   -9.1054    0.0000 H   0  0  0  0  0  0  0  0  0  0  0  0
   -9.2089   -9.0934    0.0000 H   0  0  0  0  0  0  0  0  0  0  0  0
   -6.3591   -9.1150    0.0000 H   0  0  0  0  0  0  0  0  0  0  0  0
   -7.4418   -9.2453    0.0000 H   0  0  0  0  0  0  0  0  0  0  0  0
   -4.6394   -8.7272    0.0000 H   0  0  0  0  0  0  0  0  0  0  0  0
   -5.8597   -9.0375    0.0000 H   0  0  0  0  0  0  0  0  0  0  0  0
   -3.0241   -8.0209    0.0000 H   0  0  0  0  0  0  0  0  0  0  0  0
   -4.1636   -8.5566    0.0000 H   0  0  0  0  0  0  0  0  0  0  0  0
   -1.5717   -7.0217    0.0000 H   0  0  0  0  0  0  0  0  0  0  0  0
   -2.5893   -7.7634    0.0000 H   0  0  0  0  0  0  0  0  0  0  0  0
   -0.2882   -5.5885    0.0000 H   0  0  0  0  0  0  0  0  0  0  0  0
   -1.1935   -6.6866    0.0000 H   0  0  0  0  0  0  0  0  0  0  0  0
    0.4252   -4.9053    0.0000 H   0  0  0  0  0  0  0  0  0  0  0  0
  -11.2935   -9.8549    0.0000 H   0  0  0  0  0  0  0  0  0  0  0  0
  -12.5936   -8.8653    0.0000 H   0  0  0  0  0  0  0  0  0  0  0  0
  -12.2185   -7.2751    0.0000 H   0  0  0  0  0  0  0  0  0  0  0  0
  -12.2507   -9.6386    0.0000 H   0  0  0  0  0  0  0  0  0  0  0  0
   -9.0482  -10.7544    0.0000 H   0  0  0  0  0  0  0  0  0  0  0  0
   -8.2966  -13.3437    0.0000 H   0  0  0  0  0  0  0  0  0  0  0  0
   -8.5098  -11.5721    0.0000 H   0  0  0  0  0  0  0  0  0  0  0  0
  -11.4809  -14.8320    0.0000 H   0  0  0  0  0  0  0  0  0  0  0  0
  -11.7560  -13.7176    0.0000 H   0  0  0  0  0  0  0  0  0  0  0  0
   -8.1443  -15.9374    0.0000 H   0  0  0  0  0  0  0  0  0  0  0  0
   -8.2401  -14.3063    0.0000 H   0  0  0  0  0  0  0  0  0  0  0  0
  -11.2112  -17.5662    0.0000 H   0  0  0  0  0  0  0  0  0  0  0  0
  -11.4244  -15.7946    0.0000 H   0  0  0  0  0  0  0  0  0  0  0  0
   -9.9684  -19.1300    0.0000 H   0  0  0  0  0  0  0  0  0  0  0  0
   -8.0922  -18.6844    0.0000 H   0  0  0  0  0  0  0  0  0  0  0  0
   -8.0878  -16.8999    0.0000 H   0  0  0  0  0  0  0  0  0  0  0  0
   -9.8787  -14.6029    0.0000 H   0  0  0  0  0  0  0  0  0  0  0  0
  -12.9258  -13.5243    0.0000 H   0  0  0  0  0  0  0  0  0  0  0  0
  -14.5937  -16.6182    0.0000 H   0  0  0  0  0  0  0  0  0  0  0  0
  -12.9708  -16.8071    0.0000 H   0  0  0  0  0  0  0  0  0  0  0  0
  -15.5064  -13.2239    0.0000 H   0  0  0  0  0  0  0  0  0  0  0  0
  -13.8835  -13.4128    0.0000 H   0  0  0  0  0  0  0  0  0  0  0  0
  -17.1744  -16.3178    0.0000 H   0  0  0  0  0  0  0  0  0  0  0  0
  -15.5515  -16.5067    0.0000 H   0  0  0  0  0  0  0  0  0  0  0  0
  -18.2459  -13.0147    0.0000 H   0  0  0  0  0  0  0  0  0  0  0  0
  -16.4642  -13.1124    0.0000 H   0  0  0  0  0  0  0  0  0  0  0  0
  -20.0017  -13.9671    0.0000 H   0  0  0  0  0  0  0  0  0  0  0  0
  -19.8887  -15.8922    0.0000 H   0  0  0  0  0  0  0  0  0  0  0  0
  -18.1321  -16.2063    0.0000 H   0  0  0  0  0  0  0  0  0  0  0  0
  1  2  1  0
  2  3  1  0
  3  4  2  0
  4  5  1  0
  5  6  2  0
  6  7  1  0
  7  8  2  0
  7  9  1  0
  9 10  1  0
 10 11  1  0
 11 12  2  0
  9 13  1  0
 13 14  1  0
 14 15  2  0
 15 16  1  0
 16 17  2  0
 17 18  1  0
 16 19  1  0
 14 20  1  0
 20 21  1  0
 21 22  2  0
 22 23  1  0
 23 24  2  0
 24 25  1  0
 25 26  2  0
 25 27  1  0
  1 28  2  0
  1 29  1  0
 29 30  1  0
 30 31  1  0
 31 32  1  0
 32 33  2  0
 32 34  1  0
 34 35  1  0
 35 36  1  0
 36 37  1  0
 37 38  1  0
 38 39  1  0
 39 40  1  0
 40 41  2  3
 40 42  1  0
 35 43  1  0
 43 44  2  0
 43 45  1  0
 45 46  1  0
 46 47  1  0
 47 48  1  0
 48 49  1  0
 49 50  1  0
 49 51  2  0
 46 52  1  0
 52 53  2  0
 52 54  1  0
 55 54  1  1
 55 56  1  0
 56 57  1  0
 57 58  1  0
 58 59  1  0
 55 60  1  0
 55 61  1  0
 61 62  2  0
 61 63  1  0
 63 64  1  0
 64 65  1  0
 65 66  1  0
 66 67  1  0
 67 68  1  0
 68 69  1  0
 64 70  1  0
 70 71  2  0
 70 72  1  0
 72 73  1  0
 73 74  1  0
 74 75  1  0
 74 76  1  0
 76 77  1  0
 73 78  1  0
 78 79  2  0
 78 80  1  0
 80 81  1  0
 81 82  1  0
 82 83  1  0
 83 84  2  0
 84 85  1  0
 85 86  1  0
 86 87  2  0
 87 88  1  0
 88 89  2  0
 89 90  1  0
 90 91  2  0
 81 92  1  0
 92 93  2  0
 92 94  1  0
 94 95  1  0
 95 96  1  0
 96 97  1  0
 97 98  1  0
 98 99  1  0
 95100  1  0
100101  1  0
101102  1  0
102103  1  0
 95104  1  0
104105  2  0
104106  1  0
106107  1  0
107108  1  0
108109  1  0
109110  1  0
110111  1  0
110112  2  0
107113  1  0
113114  2  0
113115  1  0
115116  1  0
116117  1  0
117118  1  0
118119  1  0
118120  2  0
116121  1  0
121122  2  0
121123  1  0
123124  1  0
124125  1  0
125126  1  0
126127  1  0
127128  1  0
128129  1  0
129130  2  3
129131  1  0
124132  1  0
132133  2  0
132134  1  0
134135  1  0
135136  1  0
136137  1  0
137138  1  0
138139  1  0
139140  1  0
140141  2  3
140142  1  0
135143  1  0
143144  2  0
143145  1  0
145146  1  0
146147  1  0
147148  1  0
148149  1  0
149150  1  0
146151  1  0
151152  2  0
151153  1  0
153154  1  0
154155  1  0
155156  1  0
156157  1  0
157158  1  0
158159  1  0
154160  1  0
160161  2  0
160162  1  0
162163  1  0
163164  1  0
164165  1  0
165166  1  0
166167  1  0
167168  1  0
168169  1  0
169170  1  0
163171  1  0
163172  1  1
172173  2  0
172174  1  0
174175  1  0
175176  1  0
176177  1  0
177178  1  0
178179  1  0
179180  1  0
175181  1  0
181182  2  0
181183  1  0
183184  1  0
184185  1  0
185186  1  0
186187  1  0
187188  1  0
188189  1  0
184190  1  0
190191  2  0
190192  1  0
  8  3  1  0
 91 83  1  0
 11  6  1  0
 91 86  1  0
 18 13  2  0
 59 99  2  0
 22  9  1  0
103170  2  0
 26 21  1  0
  2193  1  0
  4194  1  0
  5195  1  0
  8196  1  0
 15197  1  0
 17198  1  0
 18199  1  0
 19200  1  0
 23201  1  0
 24202  1  0
 26203  1  0
 27204  1  0
 29205  1  0
 30206  1  0
 30207  1  0
 31208  1  0
 31209  1  0
 34210  1  0
 35211  1  1
 36212  1  0
 36213  1  0
 37214  1  0
 37215  1  0
 38216  1  0
 38217  1  0
 39218  1  0
 41219  1  0
 41220  1  0
 42221  1  0
 42222  1  0
 45223  1  0
 46224  1  1
 47225  1  0
 47226  1  0
 48227  1  0
 48228  1  0
 50229  1  0
 50230  1  0
 54231  1  0
 56232  1  0
 56233  1  0
 57234  1  0
 57235  1  0
 58236  1  0
 58237  1  0
 59238  1  0
 60239  1  0
 60240  1  0
 60241  1  0
 63242  1  0
 64243  1  6
 65244  1  0
 65245  1  0
 66246  1  0
 66247  1  0
 67248  1  0
 67249  1  0
 68250  1  0
 68251  1  0
 69252  1  0
 69253  1  0
 69254  1  0
 72255  1  0
 73256  1  6
 74257  1  1
 75258  1  0
 75259  1  0
 75260  1  0
 76261  1  0
 76262  1  0
 77263  1  0
 77264  1  0
 77265  1  0
 80266  1  0
 81267  1  6
 82268  1  0
 82269  1  0
 84270  1  0
 85271  1  0
 87272  1  0
 88273  1  0
 89274  1  0
 90275  1  0
 94276  1  0
 96277  1  0
 96278  1  0
 97279  1  0
 97280  1  0
 98281  1  0
 98282  1  0
 99283  1  0
100284  1  0
100285  1  0
101286  1  0
101287  1  0
102288  1  0
102289  1  0
103290  1  0
106291  1  0
107292  1  6
108293  1  0
108294  1  0
109295  1  0
109296  1  0
111297  1  0
111298  1  0
115299  1  0
116300  1  6
117301  1  0
117302  1  0
119303  1  0
119304  1  0
123305  1  0
124306  1  6
125307  1  0
125308  1  0
126309  1  0
126310  1  0
127311  1  0
127312  1  0
128313  1  0
130314  1  0
130315  1  0
131316  1  0
131317  1  0
134318  1  0
135319  1  6
136320  1  0
136321  1  0
137322  1  0
137323  1  0
138324  1  0
138325  1  0
139326  1  0
141327  1  0
141328  1  0
142329  1  0
142330  1  0
145331  1  0
146332  1  6
147333  1  0
147334  1  0
148335  1  0
148336  1  0
150337  1  0
150338  1  0
150339  1  0
153340  1  0
154341  1  6
155342  1  0
155343  1  0
156344  1  0
156345  1  0
157346  1  0
157347  1  0
158348  1  0
158349  1  0
159350  1  0
159351  1  0
159352  1  0
162353  1  0
164354  1  0
164355  1  0
165356  1  0
165357  1  0
166358  1  0
166359  1  0
167360  1  0
167361  1  0
168362  1  0
168363  1  0
169364  1  0
169365  1  0
170366  1  0
171367  1  0
171368  1  0
171369  1  0
174370  1  0
175371  1  1
176372  1  0
176373  1  0
177374  1  0
177375  1  0
178376  1  0
178377  1  0
179378  1  0
179379  1  0
180380  1  0
180381  1  0
180382  1  0
183383  1  0
184384  1  6
185385  1  0
185386  1  0
186387  1  0
186388  1  0
187389  1  0
187390  1  0
188391  1  0
188392  1  0
189393  1  0
189394  1  0
189395  1  0
M  CHG  8  41   1  69   1 130   1 141   1 159   1 180   1 189   1 192  -1
M  END
