
     RDKit          2D

463469  0  0  0  0  0  0  0  0999 V2000
   30.7193    4.0138    0.0000 C   0  0  0  0  0  0  0  0  0  0  0  0
   30.2152    5.4265    0.0000 N   0  0  0  0  0  0  0  0  0  0  0  0
   31.1865    6.5695    0.0000 C   0  0  0  0  0  0  0  0  0  0  0  0
   32.6621    6.2997    0.0000 C   0  0  0  0  0  0  0  0  0  0  0  0
   33.6335    7.4427    0.0000 C   0  0  0  0  0  0  0  0  0  0  0  0
   33.1293    8.8555    0.0000 C   0  0  0  0  0  0  0  0  0  0  0  0
   31.6538    9.1252    0.0000 C   0  0  0  0  0  0  0  0  0  0  0  0
   30.6824    7.9822    0.0000 C   0  0  0  0  0  0  0  0  0  0  0  0
   31.4544   10.6119    0.0000 C   0  0  0  0  0  0  0  0  0  0  0  0
   32.8067   11.2610    0.0000 O   0  0  0  0  0  0  0  0  0  0  0  0
   33.8418   10.1754    0.0000 C   0  0  0  0  0  0  0  0  0  0  0  0
   35.3285   10.3748    0.0000 O   0  0  0  0  0  0  0  0  0  0  0  0
   31.4114   12.1113    0.0000 C   0  0  0  0  0  0  0  0  0  0  0  0
   30.0915   12.8238    0.0000 C   0  0  0  0  0  0  0  0  0  0  0  0
   30.0485   14.3232    0.0000 C   0  0  0  0  0  0  0  0  0  0  0  0
   31.3256   15.1101    0.0000 C   0  0  0  0  0  0  0  0  0  0  0  0
   32.6456   14.3975    0.0000 C   0  0  0  0  0  0  0  0  0  0  0  0
   32.6885   12.8982    0.0000 C   0  0  0  0  0  0  0  0  0  0  0  0
   31.2827   16.6094    0.0000 O   0  0  0  0  0  0  0  0  0  0  0  0
   28.8144   12.0369    0.0000 O   0  0  0  0  0  0  0  0  0  0  0  0
   28.8573   10.5376    0.0000 C   0  0  0  0  0  0  0  0  0  0  0  0
   30.1773    9.8250    0.0000 C   0  0  0  0  0  0  0  0  0  0  0  0
   29.6043    8.6582    0.0000 C   0  0  0  0  0  0  0  0  0  0  0  0
   28.9232    8.2385    0.0000 C   0  0  0  0  0  0  0  0  0  0  0  0
   28.2192    8.6185    0.0000 C   0  0  0  0  0  0  0  0  0  0  0  0
   28.1963    9.4182    0.0000 C   0  0  0  0  0  0  0  0  0  0  0  0
   26.3462    7.4644    0.0000 O   0  0  0  0  0  0  0  0  0  0  0  0
   32.1949    3.7440    0.0000 S   0  0  0  0  0  0  0  0  0  0  0  0
   29.7479    2.8708    0.0000 N   0  0  0  0  0  0  0  0  0  0  0  0
   30.2521    1.4581    0.0000 C   0  0  0  0  0  0  0  0  0  0  0  0
   29.2807    0.3151    0.0000 C   0  0  0  0  0  0  0  0  0  0  0  0
   29.7849   -1.0977    0.0000 C   0  0  0  0  0  0  0  0  0  0  0  0
   30.5807   -1.1444    0.0000 O   0  0  0  0  0  0  0  0  0  0  0  0
   28.8135   -2.2406    0.0000 N   0  0  0  0  0  0  0  0  0  0  0  0
   29.3176   -3.6534    0.0000 C   0  0  0  0  0  0  0  0  0  0  0  0
   30.6214   -2.9116    0.0000 C   0  0  0  0  0  0  0  0  0  0  0  0
   30.8136   -1.4239    0.0000 O   0  0  0  0  0  0  0  0  0  0  0  0
   29.3082   -5.1533    0.0000 C   0  0  0  0  0  0  0  0  0  0  0  0
   30.7475   -5.5758    0.0000 O   0  0  0  0  0  0  0  0  0  0  0  0
   28.0045   -5.8952    0.0000 N   0  0  0  0  0  0  0  0  0  0  0  0
   27.9950   -7.3951    0.0000 C   0  0  0  0  0  0  0  0  0  0  0  0
   29.4739   -7.1440    0.0000 C   0  0  0  0  0  0  0  0  0  0  0  0
   29.9957   -5.7377    0.0000 C   0  0  0  0  0  0  0  0  0  0  0  0
   31.4746   -5.4865    0.0000 C   0  0  0  0  0  0  0  0  0  0  0  0
   32.1640   -4.1543    0.0000 O   0  0  0  0  0  0  0  0  0  0  0  0
   32.4315   -6.6416    0.0000 O   0  0  0  0  0  0  0  0  0  0  0  0
   27.4732   -8.8014    0.0000 C   0  0  0  0  0  0  0  0  0  0  0  0
   28.6812   -9.6906    0.0000 O   0  0  0  0  0  0  0  0  0  0  0  0
   25.9943   -9.0526    0.0000 N   0  0  0  0  0  0  0  0  0  0  0  0
   25.4725  -10.4589    0.0000 C   0  0  0  0  0  0  0  0  0  0  0  0
   26.9480  -10.7286    0.0000 C   0  0  0  0  0  0  0  0  0  0  0  0
   27.9194   -9.5857    0.0000 C   0  0  0  0  0  0  0  0  0  0  0  0
   29.3949   -9.8554    0.0000 C   0  0  0  0  0  0  0  0  0  0  0  0
   30.4984   -8.8394    0.0000 O   0  0  0  0  0  0  0  0  0  0  0  0
   29.8991  -11.2682    0.0000 O   0  0  0  0  0  0  0  0  0  0  0  0
   24.5011  -11.6019    0.0000 C   0  0  0  0  0  0  0  0  0  0  0  0
   25.3321  -12.8506    0.0000 O   0  0  0  0  0  0  0  0  0  0  0  0
   23.0255  -11.3321    0.0000 N   0  0  0  0  0  0  0  0  0  0  0  0
   22.0541  -12.4751    0.0000 C   0  0  0  0  0  0  0  0  0  0  0  0
   23.3484  -13.2332    0.0000 C   0  0  0  0  0  0  0  0  0  0  0  0
   24.6522  -12.4914    0.0000 C   0  0  0  0  0  0  0  0  0  0  0  0
   25.9465  -13.2496    0.0000 C   0  0  0  0  0  0  0  0  0  0  0  0
   25.6235  -11.3484    0.0000 C   0  0  0  0  0  0  0  0  0  0  0  0
   20.7504  -13.2169    0.0000 C   0  0  0  0  0  0  0  0  0  0  0  0
   20.9239  -14.7068    0.0000 O   0  0  0  0  0  0  0  0  0  0  0  0
   19.4561  -12.4588    0.0000 N   0  0  0  0  0  0  0  0  0  0  0  0
   18.1524  -13.2006    0.0000 C   0  0  0  0  0  0  0  0  0  0  0  0
   19.1093  -14.3557    0.0000 C   0  0  0  0  0  0  0  0  0  0  0  0
   20.6077  -14.2866    0.0000 C   0  0  0  0  0  0  0  0  0  0  0  0
   16.6736  -13.4518    0.0000 C   0  0  0  0  0  0  0  0  0  0  0  0
   16.3270  -14.9112    0.0000 O   0  0  0  0  0  0  0  0  0  0  0  0
   15.7166  -12.2966    0.0000 N   0  0  0  0  0  0  0  0  0  0  0  0
   14.2378  -12.5478    0.0000 C   0  0  0  0  0  0  0  0  0  0  0  0
   14.7420  -13.9606    0.0000 C   0  0  0  0  0  0  0  0  0  0  0  0
   12.7623  -12.2781    0.0000 C   0  0  0  0  0  0  0  0  0  0  0  0
   12.0963  -13.6221    0.0000 O   0  0  0  0  0  0  0  0  0  0  0  0
   12.2581  -10.8653    0.0000 N   0  0  0  0  0  0  0  0  0  0  0  0
   10.7826  -10.5956    0.0000 C   0  0  0  0  0  0  0  0  0  0  0  0
   10.7731  -12.0956    0.0000 C   0  0  0  0  0  0  0  0  0  0  0  0
   12.0674  -12.8537    0.0000 C   0  0  0  0  0  0  0  0  0  0  0  0
   12.0580  -14.3537    0.0000 C   0  0  0  0  0  0  0  0  0  0  0  0
   13.2502  -15.2639    0.0000 O   0  0  0  0  0  0  0  0  0  0  0  0
   10.7543  -15.0955    0.0000 O   0  0  0  0  0  0  0  0  0  0  0  0
    9.4883   -9.8374    0.0000 C   0  0  0  0  0  0  0  0  0  0  0  0
    8.2847  -10.7326    0.0000 O   0  0  0  0  0  0  0  0  0  0  0  0
    9.4977   -8.3375    0.0000 N   0  0  0  0  0  0  0  0  0  0  0  0
    8.2034   -7.5793    0.0000 C   0  0  0  0  0  0  0  0  0  0  0  0
    8.0373   -9.0701    0.0000 C   0  0  0  0  0  0  0  0  0  0  0  0
    7.2465   -6.4242    0.0000 C   0  0  0  0  0  0  0  0  0  0  0  0
    5.8724   -7.0258    0.0000 O   0  0  0  0  0  0  0  0  0  0  0  0
    7.7683   -5.0179    0.0000 N   0  0  0  0  0  0  0  0  0  0  0  0
    6.8114   -3.8628    0.0000 C   0  0  0  0  0  0  0  0  0  0  0  0
    5.8400   -5.0058    0.0000 C   0  0  0  0  0  0  0  0  0  0  0  0
    6.3442   -6.4185    0.0000 C   0  0  0  0  0  0  0  0  0  0  0  0
    7.7834   -6.8410    0.0000 C   0  0  0  0  0  0  0  0  0  0  0  0
    7.8264   -8.3404    0.0000 N   0  0  0  0  0  0  0  0  0  0  0  0
    6.4136   -8.8446    0.0000 C   0  0  0  0  0  0  0  0  0  0  0  0
    5.4976   -7.6568    0.0000 N   0  0  0  0  0  0  0  0  0  0  0  0
    6.3072   -2.4501    0.0000 C   0  0  0  0  0  0  0  0  0  0  0  0
    4.8103   -2.5454    0.0000 O   0  0  0  0  0  0  0  0  0  0  0  0
    7.2786   -1.3071    0.0000 N   0  0  0  0  0  0  0  0  0  0  0  0
    6.7745    0.1056    0.0000 C   0  0  0  0  0  0  0  0  0  0  0  0
    5.7325   -0.9734    0.0000 C   0  0  0  0  0  0  0  0  0  0  0  0
    4.5052   -1.8358    0.0000 C   0  0  0  0  0  0  0  0  0  0  0  0
    3.1369   -2.4503    0.0000 C   0  0  0  0  0  0  0  0  0  0  0  0
    1.6770   -2.7948    0.0000 C   0  0  0  0  0  0  0  0  0  0  0  0
    0.1783   -2.8568    0.0000 C   0  0  0  0  0  0  0  0  0  0  0  0
   -1.3051   -2.6340    0.0000 C   0  0  0  0  0  0  0  0  0  0  0  0
   -2.7195   -2.1345    0.0000 C   0  0  0  0  0  0  0  0  0  0  0  0
    8.2642   -0.0700    0.0000 C   0  0  0  0  0  0  0  0  0  0  0  0
    7.5934    1.3624    0.0000 C   0  0  0  0  0  0  0  0  0  0  0  0
    8.9972    0.8339    0.0000 O   0  0  0  0  0  0  0  0  0  0  0  0
    8.1596    2.7514    0.0000 N   0  0  0  0  0  0  0  0  0  0  0  0
    8.4527    4.2225    0.0000 C   0  0  0  0  0  0  0  0  0  0  0  0
    9.8009    4.8801    0.0000 C   0  0  0  0  0  0  0  0  0  0  0  0
   11.0445    4.0414    0.0000 C   0  0  0  0  0  0  0  0  0  0  0  0
   12.3926    4.6991    0.0000 C   0  0  0  0  0  0  0  0  0  0  0  0
   11.9262    2.8279    0.0000 C   0  0  0  0  0  0  0  0  0  0  0  0
    8.4622    5.7225    0.0000 C   0  0  0  0  0  0  0  0  0  0  0  0
    9.9289    6.0368    0.0000 O   0  0  0  0  0  0  0  0  0  0  0  0
    8.1875    7.1971    0.0000 N   0  0  0  0  0  0  0  0  0  0  0  0
    7.6388    8.5931    0.0000 C   0  0  0  0  0  0  0  0  0  0  0  0
    8.4174    9.8753    0.0000 C   0  0  0  0  0  0  0  0  0  0  0  0
    9.9170    9.8420    0.0000 S   0  0  0  0  0  0  0  0  0  0  0  0
    6.8358    9.8601    0.0000 C   0  0  0  0  0  0  0  0  0  0  0  0
    7.8997   10.9175    0.0000 O   0  0  0  0  0  0  0  0  0  0  0  0
    5.8075   10.9522    0.0000 N   0  0  0  0  0  0  0  0  0  0  0  0
    4.5912   11.8299    0.0000 C   0  0  0  0  0  0  0  0  0  0  0  0
    4.5530   13.3295    0.0000 C   0  0  0  0  0  0  0  0  0  0  0  0
    4.1785   14.7820    0.0000 O   0  0  0  0  0  0  0  0  0  0  0  0
    5.8325   14.1123    0.0000 C   0  0  0  0  0  0  0  0  0  0  0  0
    3.2307   12.4616    0.0000 C   0  0  0  0  0  0  0  0  0  0  0  0
    3.5540   13.9264    0.0000 O   0  0  0  0  0  0  0  0  0  0  0  0
    1.7752   12.8244    0.0000 N   0  0  0  0  0  0  0  0  0  0  0  0
    0.2774   12.9052    0.0000 C   0  0  0  0  0  0  0  0  0  0  0  0
   -0.5654   14.1461    0.0000 C   0  0  0  0  0  0  0  0  0  0  0  0
    0.0878   15.4964    0.0000 C   0  0  0  0  0  0  0  0  0  0  0  0
   -0.7550   16.7372    0.0000 C   0  0  0  0  0  0  0  0  0  0  0  0
    1.1634   16.5418    0.0000 C   0  0  0  0  0  0  0  0  0  0  0  0
   -1.2087   12.7011    0.0000 C   0  0  0  0  0  0  0  0  0  0  0  0
   -1.7285   14.1081    0.0000 O   0  0  0  0  0  0  0  0  0  0  0  0
   -2.6292   12.2194    0.0000 N   0  0  0  0  0  0  0  0  0  0  0  0
   -3.9330   11.4776    0.0000 C   0  0  0  0  0  0  0  0  0  0  0  0
   -5.3128   12.0658    0.0000 C   0  0  0  0  0  0  0  0  0  0  0  0
   -5.4933   13.5549    0.0000 C   0  0  0  0  0  0  0  0  0  0  0  0
   -6.8732   14.1431    0.0000 C   0  0  0  0  0  0  0  0  0  0  0  0
   -5.1537   15.0159    0.0000 C   0  0  0  0  0  0  0  0  0  0  0  0
   -5.0727   10.5024    0.0000 C   0  0  0  0  0  0  0  0  0  0  0  0
   -6.2708   11.4051    0.0000 O   0  0  0  0  0  0  0  0  0  0  0  0
   -6.0074    9.3292    0.0000 N   0  0  0  0  0  0  0  0  0  0  0  0
   -6.7031    8.0003    0.0000 C   0  0  0  0  0  0  0  0  0  0  0  0
   -8.1819    7.7491    0.0000 C   0  0  0  0  0  0  0  0  0  0  0  0
   -9.1388    8.9042    0.0000 C   0  0  0  0  0  0  0  0  0  0  0  0
  -10.6177    8.6531    0.0000 C   0  0  0  0  0  0  0  0  0  0  0  0
  -11.5746    9.8082    0.0000 O   0  0  0  0  0  0  0  0  0  0  0  0
  -11.1395    7.2468    0.0000 O   0  0  0  0  0  0  0  0  0  0  0  0
   -7.1347    6.5638    0.0000 C   0  0  0  0  0  0  0  0  0  0  0  0
   -8.6306    6.6754    0.0000 O   0  0  0  0  0  0  0  0  0  0  0  0
   -7.2867    5.0715    0.0000 N   0  0  0  0  0  0  0  0  0  0  0  0
   -7.1535    3.5774    0.0000 C   0  0  0  0  0  0  0  0  0  0  0  0
   -6.7400    2.1355    0.0000 C   0  0  0  0  0  0  0  0  0  0  0  0
   -6.0610    0.7980    0.0000 C   0  0  0  0  0  0  0  0  0  0  0  0
   -5.1412   -0.3869    0.0000 C   0  0  0  0  0  0  0  0  0  0  0  0
   -4.0138   -1.3763    0.0000 C   0  0  0  0  0  0  0  0  0  0  0  0
   -8.5513    4.1215    0.0000 C   0  0  0  0  0  0  0  0  0  0  0  0
   -8.2618    2.5666    0.0000 C   0  0  0  0  0  0  0  0  0  0  0  0
   -8.3046    1.0672    0.0000 O   0  0  0  0  0  0  0  0  0  0  0  0
   -9.6913    3.0210    0.0000 N   0  0  0  0  0  0  0  0  0  0  0  0
  -10.7995    2.0101    0.0000 C   0  0  0  0  0  0  0  0  0  0  0  0
  -11.4953    0.6812    0.0000 C   0  0  0  0  0  0  0  0  0  0  0  0
  -12.2291    2.4645    0.0000 C   0  0  0  0  0  0  0  0  0  0  0  0
  -12.5503    3.9297    0.0000 O   0  0  0  0  0  0  0  0  0  0  0  0
  -13.3373    1.4537    0.0000 N   0  0  0  0  0  0  0  0  0  0  0  0
  -14.7669    1.9081    0.0000 C   0  0  0  0  0  0  0  0  0  0  0  0
  -15.9548    2.8240    0.0000 C   0  0  0  0  0  0  0  0  0  0  0  0
  -15.5758    4.2753    0.0000 C   0  0  0  0  0  0  0  0  0  0  0  0
  -17.3843    3.2784    0.0000 C   0  0  0  0  0  0  0  0  0  0  0  0
  -17.7056    4.7436    0.0000 C   0  0  0  0  0  0  0  0  0  0  0  0
  -15.8751    0.8973    0.0000 C   0  0  0  0  0  0  0  0  0  0  0  0
  -15.5539   -0.5679    0.0000 O   0  0  0  0  0  0  0  0  0  0  0  0
  -17.3047    1.3516    0.0000 N   0  0  0  0  0  0  0  0  0  0  0  0
  -18.4129    0.3408    0.0000 C   0  0  0  0  0  0  0  0  0  0  0  0
  -19.1086   -0.9881    0.0000 C   0  0  0  0  0  0  0  0  0  0  0  0
  -20.6073   -1.0500    0.0000 C   0  0  0  0  0  0  0  0  0  0  0  0
  -21.3031   -2.3789    0.0000 C   0  0  0  0  0  0  0  0  0  0  0  0
  -22.7830   -2.6231    0.0000 N   0  0  0  0  0  0  0  0  0  0  0  0
  -20.5000   -3.6459    0.0000 O   0  0  0  0  0  0  0  0  0  0  0  0
  -19.8424    0.7952    0.0000 C   0  0  0  0  0  0  0  0  0  0  0  0
  -20.1637    2.2604    0.0000 O   0  0  0  0  0  0  0  0  0  0  0  0
  -20.9507   -0.2156    0.0000 N   0  0  0  0  0  0  0  0  0  0  0  0
  -22.3802    0.2388    0.0000 C   0  0  0  0  0  0  0  0  0  0  0  0
  -23.5681    1.1547    0.0000 C   0  0  0  0  0  0  0  0  0  0  0  0
  -23.3689    2.6414    0.0000 C   0  0  0  0  0  0  0  0  0  0  0  0
  -24.5568    3.5573    0.0000 O   0  0  0  0  0  0  0  0  0  0  0  0
  -21.9818    3.2122    0.0000 O   0  0  0  0  0  0  0  0  0  0  0  0
  -23.4885   -0.7720    0.0000 C   0  0  0  0  0  0  0  0  0  0  0  0
  -23.3482   -2.2655    0.0000 O   0  0  0  0  0  0  0  0  0  0  0  0
  -24.9180   -0.3177    0.0000 N   0  0  0  0  0  0  0  0  0  0  0  0
  -26.0263   -1.3285    0.0000 C   0  0  0  0  0  0  0  0  0  0  0  0
  -26.7220   -2.6574    0.0000 C   0  0  0  0  0  0  0  0  0  0  0  0
  -26.9212   -4.1441    0.0000 O   0  0  0  0  0  0  0  0  0  0  0  0
  -28.2020   -2.9016    0.0000 C   0  0  0  0  0  0  0  0  0  0  0  0
  -27.4558   -0.8741    0.0000 C   0  0  0  0  0  0  0  0  0  0  0  0
  -27.7771    0.5911    0.0000 O   0  0  0  0  0  0  0  0  0  0  0  0
  -28.5641   -1.8849    0.0000 N   0  0  0  0  0  0  0  0  0  0  0  0
  -29.9936   -1.4305    0.0000 C   0  0  0  0  0  0  0  0  0  0  0  0
  -31.1815   -0.5146    0.0000 C   0  0  0  0  0  0  0  0  0  0  0  0
  -30.9823    0.9721    0.0000 C   0  0  0  0  0  0  0  0  0  0  0  0
  -31.1019   -2.4414    0.0000 C   0  0  0  0  0  0  0  0  0  0  0  0
  -30.7806   -3.9066    0.0000 O   0  0  0  0  0  0  0  0  0  0  0  0
  -32.5314   -1.9870    0.0000 N   0  0  0  0  0  0  0  0  0  0  0  0
  -33.6397   -2.9978    0.0000 C   0  0  0  0  0  0  0  0  0  0  0  0
  -34.3354   -4.3267    0.0000 C   0  0  0  0  0  0  0  0  0  0  0  0
  -35.8341   -4.3887    0.0000 C   0  0  0  0  0  0  0  0  0  0  0  0
  -36.5298   -5.7176    0.0000 C   0  0  0  0  0  0  0  0  0  0  0  0
  -38.0285   -5.7795    0.0000 N   0  0  0  0  0  0  0  0  0  0  0  0
  -38.7242   -7.1084    0.0000 C   0  0  0  0  0  0  0  0  0  0  0  0
  -40.2193   -6.9872    0.0000 N   0  0  0  0  0  0  0  0  0  0  0  0
  -37.9212   -8.3754    0.0000 N   0  0  0  0  0  0  0  0  0  0  0  0
  -35.0692   -2.5434    0.0000 C   0  0  0  0  0  0  0  0  0  0  0  0
  -35.3904   -1.0782    0.0000 O   0  0  0  0  0  0  0  0  0  0  0  0
  -36.1774   -3.5542    0.0000 N   0  0  0  0  0  0  0  0  0  0  0  0
  -37.6070   -3.0999    0.0000 C   0  0  0  0  0  0  0  0  0  0  0  0
  -38.7949   -2.1840    0.0000 C   0  0  0  0  0  0  0  0  0  0  0  0
  -38.5956   -0.6972    0.0000 C   0  0  0  0  0  0  0  0  0  0  0  0
  -39.7835    0.2187    0.0000 C   0  0  0  0  0  0  0  0  0  0  0  0
  -39.5843    1.7054    0.0000 O   0  0  0  0  0  0  0  0  0  0  0  0
  -41.1707   -0.3522    0.0000 O   0  0  0  0  0  0  0  0  0  0  0  0
  -38.7152   -4.1107    0.0000 C   0  0  0  0  0  0  0  0  0  0  0  0
  -38.7581   -5.6101    0.0000 O   0  0  0  0  0  0  0  0  0  0  0  0
  -40.1448   -3.6563    0.0000 N   0  0  0  0  0  0  0  0  0  0  0  0
  -41.2530   -4.6671    0.0000 C   0  0  0  0  0  0  0  0  0  0  0  0
  -41.9487   -5.9960    0.0000 C   0  0  0  0  0  0  0  0  0  0  0  0
  -43.4475   -6.0580    0.0000 C   0  0  0  0  0  0  0  0  0  0  0  0
  -44.1432   -7.3869    0.0000 C   0  0  0  0  0  0  0  0  0  0  0  0
  -45.6419   -7.4488    0.0000 N   0  0  0  0  0  0  0  0  0  0  0  0
  -43.3402   -8.6538    0.0000 O   0  0  0  0  0  0  0  0  0  0  0  0
  -42.6826   -4.2127    0.0000 C   0  0  0  0  0  0  0  0  0  0  0  0
  -43.9058   -5.0809    0.0000 O   0  0  0  0  0  0  0  0  0  0  0  0
  -43.0038   -2.7475    0.0000 O   0  0  0  0  0  0  0  0  0  0  0  0
   28.7177    5.5144    0.0000 H   0  0  0  0  0  0  0  0  0  0  0  0
   33.1662    4.8870    0.0000 H   0  0  0  0  0  0  0  0  0  0  0  0
   35.1090    7.1730    0.0000 H   0  0  0  0  0  0  0  0  0  0  0  0
   29.1854    7.8869    0.0000 H   0  0  0  0  0  0  0  0  0  0  0  0
   28.7286   15.0357    0.0000 H   0  0  0  0  0  0  0  0  0  0  0  0
   33.9226   15.1844    0.0000 H   0  0  0  0  0  0  0  0  0  0  0  0
   34.0084   12.1856    0.0000 H   0  0  0  0  0  0  0  0  0  0  0  0
   32.5597   17.3963    0.0000 H   0  0  0  0  0  0  0  0  0  0  0  0
   31.5402    7.6131    0.0000 H   0  0  0  0  0  0  0  0  0  0  0  0
   28.8030    6.0453    0.0000 H   0  0  0  0  0  0  0  0  0  0  0  0
   26.2603   10.4632    0.0000 H   0  0  0  0  0  0  0  0  0  0  0  0
   25.0262    8.1770    0.0000 H   0  0  0  0  0  0  0  0  0  0  0  0
   28.2724    3.1406    0.0000 H   0  0  0  0  0  0  0  0  0  0  0  0
   31.5558    2.1999    0.0000 H   0  0  0  0  0  0  0  0  0  0  0  0
   31.2090    0.3030    0.0000 H   0  0  0  0  0  0  0  0  0  0  0  0
   28.3238    1.4702    0.0000 H   0  0  0  0  0  0  0  0  0  0  0  0
   27.9770   -0.4267    0.0000 H   0  0  0  0  0  0  0  0  0  0  0  0
   27.3379   -1.9709    0.0000 H   0  0  0  0  0  0  0  0  0  0  0  0
   27.8388   -3.9046    0.0000 H   0  0  0  0  0  0  0  0  0  0  0  0
   32.1002   -2.6604    0.0000 H   0  0  0  0  0  0  0  0  0  0  0  0
   31.2940   -4.2523    0.0000 H   0  0  0  0  0  0  0  0  0  0  0  0
   31.9345   -0.6698    0.0000 H   0  0  0  0  0  0  0  0  0  0  0  0
   26.7102   -5.1370    0.0000 H   0  0  0  0  0  0  0  0  0  0  0  0
   26.5195   -7.1254    0.0000 H   0  0  0  0  0  0  0  0  0  0  0  0
   30.9494   -7.4137    0.0000 H   0  0  0  0  0  0  0  0  0  0  0  0
   29.6473   -8.6339    0.0000 H   0  0  0  0  0  0  0  0  0  0  0  0
   30.0052   -4.2377    0.0000 H   0  0  0  0  0  0  0  0  0  0  0  0
   28.6293   -5.1189    0.0000 H   0  0  0  0  0  0  0  0  0  0  0  0
   25.0374   -7.8975    0.0000 H   0  0  0  0  0  0  0  0  0  0  0  0
   24.2802   -9.5486    0.0000 H   0  0  0  0  0  0  0  0  0  0  0  0
   28.2423  -11.4868    0.0000 H   0  0  0  0  0  0  0  0  0  0  0  0
   26.7819  -12.2194    0.0000 H   0  0  0  0  0  0  0  0  0  0  0  0
   28.4413   -8.1794    0.0000 H   0  0  0  0  0  0  0  0  0  0  0  0
   26.8470   -8.5368    0.0000 H   0  0  0  0  0  0  0  0  0  0  0  0
   22.5214   -9.9194    0.0000 H   0  0  0  0  0  0  0  0  0  0  0  0
   21.0972  -11.3200    0.0000 H   0  0  0  0  0  0  0  0  0  0  0  0
   24.1574  -14.4964    0.0000 H   0  0  0  0  0  0  0  0  0  0  0  0
   22.3770  -14.3762    0.0000 H   0  0  0  0  0  0  0  0  0  0  0  0
   24.0032  -11.1391    0.0000 H   0  0  0  0  0  0  0  0  0  0  0  0
   27.3909  -12.8453    0.0000 H   0  0  0  0  0  0  0  0  0  0  0  0
   26.9034  -14.4047    0.0000 H   0  0  0  0  0  0  0  0  0  0  0  0
   25.1216  -14.5024    0.0000 H   0  0  0  0  0  0  0  0  0  0  0  0
   27.0991  -11.6182    0.0000 H   0  0  0  0  0  0  0  0  0  0  0  0
   26.4702  -10.1102    0.0000 H   0  0  0  0  0  0  0  0  0  0  0  0
   24.2465  -10.7537    0.0000 H   0  0  0  0  0  0  0  0  0  0  0  0
   19.4655  -10.9588    0.0000 H   0  0  0  0  0  0  0  0  0  0  0  0
   17.6482  -11.7878    0.0000 H   0  0  0  0  0  0  0  0  0  0  0  0
   19.6135  -15.7684    0.0000 H   0  0  0  0  0  0  0  0  0  0  0  0
   17.8056  -15.0975    0.0000 H   0  0  0  0  0  0  0  0  0  0  0  0
   21.5451  -15.2596    0.0000 H   0  0  0  0  0  0  0  0  0  0  0  0
   21.8919  -13.3627    0.0000 H   0  0  0  0  0  0  0  0  0  0  0  0
   20.4855  -12.6124    0.0000 H   0  0  0  0  0  0  0  0  0  0  0  0
   16.2385  -10.8904    0.0000 H   0  0  0  0  0  0  0  0  0  0  0  0
   14.2472  -11.0479    0.0000 H   0  0  0  0  0  0  0  0  0  0  0  0
   16.1736  -14.4082    0.0000 H   0  0  0  0  0  0  0  0  0  0  0  0
   14.7325  -15.4605    0.0000 H   0  0  0  0  0  0  0  0  0  0  0  0
   13.3048  -14.3901    0.0000 H   0  0  0  0  0  0  0  0  0  0  0  0
   13.2295   -9.7224    0.0000 H   0  0  0  0  0  0  0  0  0  0  0  0
   11.3044   -9.1893    0.0000 H   0  0  0  0  0  0  0  0  0  0  0  0
   10.2512  -13.5018    0.0000 H   0  0  0  0  0  0  0  0  0  0  0  0
    9.2976  -11.8258    0.0000 H   0  0  0  0  0  0  0  0  0  0  0  0
   13.5430  -13.1235    0.0000 H   0  0  0  0  0  0  0  0  0  0  0  0
   12.9141  -11.6155    0.0000 H   0  0  0  0  0  0  0  0  0  0  0  0
   10.8014   -7.5956    0.0000 H   0  0  0  0  0  0  0  0  0  0  0  0
    9.3069   -6.5633    0.0000 H   0  0  0  0  0  0  0  0  0  0  0  0
    8.5035  -10.2060    0.0000 H   0  0  0  0  0  0  0  0  0  0  0  0
    6.8490  -10.2825    0.0000 H   0  0  0  0  0  0  0  0  0  0  0  0
    6.2324   -8.6518    0.0000 H   0  0  0  0  0  0  0  0  0  0  0  0
    9.2472   -4.7667    0.0000 H   0  0  0  0  0  0  0  0  0  0  0  0
    8.1151   -3.1210    0.0000 H   0  0  0  0  0  0  0  0  0  0  0  0
    4.5363   -5.7476    0.0000 H   0  0  0  0  0  0  0  0  0  0  0  0
    4.8831   -3.8507    0.0000 H   0  0  0  0  0  0  0  0  0  0  0  0
    8.8507   -5.7870    0.0000 H   0  0  0  0  0  0  0  0  0  0  0  0
    8.8230   -9.4615    0.0000 H   0  0  0  0  0  0  0  0  0  0  0  0
    5.8188  -10.2216    0.0000 H   0  0  0  0  0  0  0  0  0  0  0  0
    8.7103   -1.7547    0.0000 H   0  0  0  0  0  0  0  0  0  0  0  0
    7.0096   -1.7602    0.0000 H   0  0  0  0  0  0  0  0  0  0  0  0
    5.7778   -2.4727    0.0000 H   0  0  0  0  0  0  0  0  0  0  0  0
    5.4785   -2.9772    0.0000 H   0  0  0  0  0  0  0  0  0  0  0  0
    4.4482   -3.3347    0.0000 H   0  0  0  0  0  0  0  0  0  0  0  0
    4.2952   -3.4035    0.0000 H   0  0  0  0  0  0  0  0  0  0  0  0
    2.9779   -3.9419    0.0000 H   0  0  0  0  0  0  0  0  0  0  0  0
    2.4860   -4.0579    0.0000 H   0  0  0  0  0  0  0  0  0  0  0  0
    1.2386   -4.2293    0.0000 H   0  0  0  0  0  0  0  0  0  0  0  0
    0.7336   -4.2502    0.0000 H   0  0  0  0  0  0  0  0  0  0  0  0
   -0.5237   -4.1824    0.0000 H   0  0  0  0  0  0  0  0  0  0  0  0
   -1.0235   -4.1073    0.0000 H   0  0  0  0  0  0  0  0  0  0  0  0
   -2.3807   -3.6794    0.0000 H   0  0  0  0  0  0  0  0  0  0  0  0
   -3.3512   -3.4950    0.0000 H   0  0  0  0  0  0  0  0  0  0  0  0
    9.0204   -1.3654    0.0000 H   0  0  0  0  0  0  0  0  0  0  0  0
    9.7552    0.0940    0.0000 H   0  0  0  0  0  0  0  0  0  0  0  0
    8.5434    1.4038    0.0000 H   0  0  0  0  0  0  0  0  0  0  0  0
    9.5328    2.1479    0.0000 H   0  0  0  0  0  0  0  0  0  0  0  0
    9.5201    3.1686    0.0000 H   0  0  0  0  0  0  0  0  0  0  0  0
   10.8428    5.9592    0.0000 H   0  0  0  0  0  0  0  0  0  0  0  0
    9.2390    6.2709    0.0000 H   0  0  0  0  0  0  0  0  0  0  0  0
   10.2946    2.7423    0.0000 H   0  0  0  0  0  0  0  0  0  0  0  0
   13.7292    4.0182    0.0000 H   0  0  0  0  0  0  0  0  0  0  0  0
   13.4346    5.7781    0.0000 H   0  0  0  0  0  0  0  0  0  0  0  0
   11.6654    6.0110    0.0000 H   0  0  0  0  0  0  0  0  0  0  0  0
   13.4260    2.8018    0.0000 H   0  0  0  0  0  0  0  0  0  0  0  0
   12.3398    1.3861    0.0000 H   0  0  0  0  0  0  0  0  0  0  0  0
   10.5781    2.1703    0.0000 H   0  0  0  0  0  0  0  0  0  0  0  0
    9.6294    7.6107    0.0000 H   0  0  0  0  0  0  0  0  0  0  0  0
    9.1333    8.4649    0.0000 H   0  0  0  0  0  0  0  0  0  0  0  0
    8.8877   11.2996    0.0000 H   0  0  0  0  0  0  0  0  0  0  0  0
    7.1928   10.7415    0.0000 H   0  0  0  0  0  0  0  0  0  0  0  0
   10.6956   11.1241    0.0000 H   0  0  0  0  0  0  0  0  0  0  0  0
    6.9270   11.9506    0.0000 H   0  0  0  0  0  0  0  0  0  0  0  0
    5.9932   12.3631    0.0000 H   0  0  0  0  0  0  0  0  0  0  0  0
    3.0545   13.3961    0.0000 H   0  0  0  0  0  0  0  0  0  0  0  0
    4.7971   15.9831    0.0000 H   0  0  0  0  0  0  0  0  0  0  0  0
    5.9774   15.6052    0.0000 H   0  0  0  0  0  0  0  0  0  0  0  0
    7.3026   14.4102    0.0000 H   0  0  0  0  0  0  0  0  0  0  0  0
    6.7028   12.8905    0.0000 H   0  0  0  0  0  0  0  0  0  0  0  0
    2.1772   14.2696    0.0000 H   0  0  0  0  0  0  0  0  0  0  0  0
    1.1686   14.1117    0.0000 H   0  0  0  0  0  0  0  0  0  0  0  0
   -1.7818   15.0238    0.0000 H   0  0  0  0  0  0  0  0  0  0  0  0
   -1.8621   13.3919    0.0000 H   0  0  0  0  0  0  0  0  0  0  0  0
    1.4804   14.9390    0.0000 H   0  0  0  0  0  0  0  0  0  0  0  0
   -0.2713   18.1571    0.0000 H   0  0  0  0  0  0  0  0  0  0  0  0
   -1.9714   17.6150    0.0000 H   0  0  0  0  0  0  0  0  0  0  0  0
   -1.9501   15.8306    0.0000 H   0  0  0  0  0  0  0  0  0  0  0  0
    0.9758   18.0301    0.0000 H   0  0  0  0  0  0  0  0  0  0  0  0
    2.5317   17.1564    0.0000 H   0  0  0  0  0  0  0  0  0  0  0  0
    2.0062   15.3010    0.0000 H   0  0  0  0  0  0  0  0  0  0  0  0
   -3.0724   13.6525    0.0000 H   0  0  0  0  0  0  0  0  0  0  0  0
   -3.8355   12.9744    0.0000 H   0  0  0  0  0  0  0  0  0  0  0  0
   -6.8106   12.1466    0.0000 H   0  0  0  0  0  0  0  0  0  0  0  0
   -5.9959   10.7304    0.0000 H   0  0  0  0  0  0  0  0  0  0  0  0
   -4.0205   13.8389    0.0000 H   0  0  0  0  0  0  0  0  0  0  0  0
   -7.2339   15.5991    0.0000 H   0  0  0  0  0  0  0  0  0  0  0  0
   -8.3710   14.2239    0.0000 H   0  0  0  0  0  0  0  0  0  0  0  0
   -7.3884   12.7344    0.0000 H   0  0  0  0  0  0  0  0  0  0  0  0
   -6.1161   16.1665    0.0000 H   0  0  0  0  0  0  0  0  0  0  0  0
   -4.3348   16.2727    0.0000 H   0  0  0  0  0  0  0  0  0  0  0  0
   -3.7738   14.4277    0.0000 H   0  0  0  0  0  0  0  0  0  0  0  0
   -7.1549   10.2952    0.0000 H   0  0  0  0  0  0  0  0  0  0  0  0
   -7.4303    9.3122    0.0000 H   0  0  0  0  0  0  0  0  0  0  0  0
   -9.5663    7.1718    0.0000 H   0  0  0  0  0  0  0  0  0  0  0  0
   -8.0346    6.2564    0.0000 H   0  0  0  0  0  0  0  0  0  0  0  0
   -9.6430   10.3170    0.0000 H   0  0  0  0  0  0  0  0  0  0  0  0
   -8.0534    9.9395    0.0000 H   0  0  0  0  0  0  0  0  0  0  0  0
   -8.7743    5.2637    0.0000 H   0  0  0  0  0  0  0  0  0  0  0  0
   -7.6369    0.9332    0.0000 H   0  0  0  0  0  0  0  0  0  0  0  0
   -8.2369    2.0402    0.0000 H   0  0  0  0  0  0  0  0  0  0  0  0
   -6.8739   -0.4626    0.0000 H   0  0  0  0  0  0  0  0  0  0  0  0
   -7.5129    0.4211    0.0000 H   0  0  0  0  0  0  0  0  0  0  0  0
   -5.5270   -1.8364    0.0000 H   0  0  0  0  0  0  0  0  0  0  0  0
   -6.5640   -0.8619    0.0000 H   0  0  0  0  0  0  0  0  0  0  0  0
   -4.8915   -2.5927    0.0000 H   0  0  0  0  0  0  0  0  0  0  0  0
   -9.9138    3.4941    0.0000 H   0  0  0  0  0  0  0  0  0  0  0  0
   -9.6787    5.1109    0.0000 H   0  0  0  0  0  0  0  0  0  0  0  0
   -8.1061    5.5539    0.0000 H   0  0  0  0  0  0  0  0  0  0  0  0
  -10.1888    4.4361    0.0000 H   0  0  0  0  0  0  0  0  0  0  0  0
   -9.6116    1.0942    0.0000 H   0  0  0  0  0  0  0  0  0  0  0  0
  -12.8722    0.0862    0.0000 H   0  0  0  0  0  0  0  0  0  0  0  0
  -11.6945   -0.8055    0.0000 H   0  0  0  0  0  0  0  0  0  0  0  0
  -10.0657    0.2269    0.0000 H   0  0  0  0  0  0  0  0  0  0  0  0
  -13.1971   -0.0397    0.0000 H   0  0  0  0  0  0  0  0  0  0  0  0
  -13.9144    3.1423    0.0000 H   0  0  0  0  0  0  0  0  0  0  0  0
  -16.9514    1.7029    0.0000 H   0  0  0  0  0  0  0  0  0  0  0  0
  -16.8173    5.3862    0.0000 H   0  0  0  0  0  0  0  0  0  0  0  0
  -15.0598    5.6396    0.0000 H   0  0  0  0  0  0  0  0  0  0  0  0
  -14.2813    4.0340    0.0000 H   0  0  0  0  0  0  0  0  0  0  0  0
  -18.8830    3.2164    0.0000 H   0  0  0  0  0  0  0  0  0  0  0  0
  -17.9374    1.8840    0.0000 H   0  0  0  0  0  0  0  0  0  0  0  0
  -19.1351    5.1979    0.0000 H   0  0  0  0  0  0  0  0  0  0  0  0
  -17.5063    6.2303    0.0000 H   0  0  0  0  0  0  0  0  0  0  0  0
  -16.2664    5.1663    0.0000 H   0  0  0  0  0  0  0  0  0  0  0  0
  -17.9709    2.6956    0.0000 H   0  0  0  0  0  0  0  0  0  0  0  0
  -17.2250   -0.5751    0.0000 H   0  0  0  0  0  0  0  0  0  0  0  0
  -19.3079   -2.4748    0.0000 H   0  0  0  0  0  0  0  0  0  0  0  0
  -17.6791   -1.4424    0.0000 H   0  0  0  0  0  0  0  0  0  0  0  0
  -22.0369   -0.5956    0.0000 H   0  0  0  0  0  0  0  0  0  0  0  0
  -21.1295    0.3561    0.0000 H   0  0  0  0  0  0  0  0  0  0  0  0
  -23.4975   -3.7698    0.0000 H   0  0  0  0  0  0  0  0  0  0  0  0
  -23.9310   -1.4158    0.0000 H   0  0  0  0  0  0  0  0  0  0  0  0
  -20.9935   -1.7150    0.0000 H   0  0  0  0  0  0  0  0  0  0  0  0
  -21.6845    1.5677    0.0000 H   0  0  0  0  0  0  0  0  0  0  0  0
  -24.9316    1.7799    0.0000 H   0  0  0  0  0  0  0  0  0  0  0  0
  -24.5647    0.0336    0.0000 H   0  0  0  0  0  0  0  0  0  0  0  0
  -25.4155    1.0974    0.0000 H   0  0  0  0  0  0  0  0  0  0  0  0
  -24.8384   -2.2444    0.0000 H   0  0  0  0  0  0  0  0  0  0  0  0
  -25.2925   -3.1118    0.0000 H   0  0  0  0  0  0  0  0  0  0  0  0
  -28.2285   -4.8797    0.0000 H   0  0  0  0  0  0  0  0  0  0  0  0
  -29.0732   -3.9535    0.0000 H   0  0  0  0  0  0  0  0  0  0  0  0
  -29.6502   -2.2650    0.0000 H   0  0  0  0  0  0  0  0  0  0  0  0
  -28.7429   -1.3132    0.0000 H   0  0  0  0  0  0  0  0  0  0  0  0
  -28.4238   -3.3783    0.0000 H   0  0  0  0  0  0  0  0  0  0  0  0
  -29.1411   -0.1964    0.0000 H   0  0  0  0  0  0  0  0  0  0  0  0
  -32.5450    0.1106    0.0000 H   0  0  0  0  0  0  0  0  0  0  0  0
  -32.1781   -1.6357    0.0000 H   0  0  0  0  0  0  0  0  0  0  0  0
  -32.1702    1.8880    0.0000 H   0  0  0  0  0  0  0  0  0  0  0  0
  -30.2866    2.3010    0.0000 H   0  0  0  0  0  0  0  0  0  0  0  0
  -29.5080    0.6953    0.0000 H   0  0  0  0  0  0  0  0  0  0  0  0
  -33.0289   -0.5719    0.0000 H   0  0  0  0  0  0  0  0  0  0  0  0
  -32.4517   -3.9137    0.0000 H   0  0  0  0  0  0  0  0  0  0  0  0
  -34.3519   -5.8266    0.0000 H   0  0  0  0  0  0  0  0  0  0  0  0
  -32.9058   -4.7811    0.0000 H   0  0  0  0  0  0  0  0  0  0  0  0
  -37.2636   -3.9343    0.0000 H   0  0  0  0  0  0  0  0  0  0  0  0
  -36.3563   -2.9825    0.0000 H   0  0  0  0  0  0  0  0  0  0  0  0
  -36.7290   -7.2043    0.0000 H   0  0  0  0  0  0  0  0  0  0  0  0
  -35.1663   -6.3428    0.0000 H   0  0  0  0  0  0  0  0  0  0  0  0
  -39.1142   -4.7445    0.0000 H   0  0  0  0  0  0  0  0  0  0  0  0
  -40.9187   -8.4993    0.0000 H   0  0  0  0  0  0  0  0  0  0  0  0
  -40.8878   -5.8132    0.0000 H   0  0  0  0  0  0  0  0  0  0  0  0
  -38.6169   -9.7043    0.0000 H   0  0  0  0  0  0  0  0  0  0  0  0
  -36.4225   -8.3134    0.0000 H   0  0  0  0  0  0  0  0  0  0  0  0
  -36.2203   -5.0536    0.0000 H   0  0  0  0  0  0  0  0  0  0  0  0
  -36.7545   -1.8657    0.0000 H   0  0  0  0  0  0  0  0  0  0  0  0
  -40.1584   -1.5587    0.0000 H   0  0  0  0  0  0  0  0  0  0  0  0
  -39.7915   -3.3050    0.0000 H   0  0  0  0  0  0  0  0  0  0  0  0
  -37.8999    0.6317    0.0000 H   0  0  0  0  0  0  0  0  0  0  0  0
  -37.1214   -0.9740    0.0000 H   0  0  0  0  0  0  0  0  0  0  0  0
  -40.6422   -2.2412    0.0000 H   0  0  0  0  0  0  0  0  0  0  0  0
  -40.0651   -5.5830    0.0000 H   0  0  0  0  0  0  0  0  0  0  0  0
  -42.1480   -7.4827    0.0000 H   0  0  0  0  0  0  0  0  0  0  0  0
  -40.4517   -6.0910    0.0000 H   0  0  0  0  0  0  0  0  0  0  0  0
  -44.8770   -5.6036    0.0000 H   0  0  0  0  0  0  0  0  0  0  0  0
  -43.7944   -4.5986    0.0000 H   0  0  0  0  0  0  0  0  0  0  0  0
  -46.3376   -8.7777    0.0000 H   0  0  0  0  0  0  0  0  0  0  0  0
  -46.4449   -6.1819    0.0000 H   0  0  0  0  0  0  0  0  0  0  0  0
  1  2  1  0
  2  3  1  0
  3  4  2  0
  4  5  1  0
  5  6  2  0
  6  7  1  0
  7  8  2  0
  7  9  1  0
  9 10  1  0
 10 11  1  0
 11 12  2  0
  9 13  1  0
 13 14  1  0
 14 15  2  0
 15 16  1  0
 16 17  2  0
 17 18  1  0
 16 19  1  0
 14 20  1  0
 20 21  1  0
 21 22  2  0
 22 23  1  0
 23 24  2  0
 24 25  1  0
 25 26  2  0
 25 27  1  0
  1 28  2  0
  1 29  1  0
 29 30  1  0
 30 31  1  0
 31 32  1  0
 32 33  2  0
 32 34  1  0
 34 35  1  0
 35 36  1  0
 36 37  1  0
 35 38  1  0
 38 39  2  0
 38 40  1  0
 40 41  1  0
 41 42  1  0
 42 43  1  0
 43 44  1  0
 44 45  2  0
 44 46  1  0
 41 47  1  0
 47 48  2  0
 47 49  1  0
 49 50  1  0
 50 51  1  0
 51 52  1  0
 52 53  1  0
 53 54  2  0
 53 55  1  0
 50 56  1  0
 56 57  2  0
 56 58  1  0
 58 59  1  0
 59 60  1  0
 60 61  1  0
 61 62  1  0
 61 63  1  0
 59 64  1  0
 64 65  2  0
 64 66  1  0
 66 67  1  0
 67 68  1  0
 68 69  1  0
 67 70  1  0
 70 71  2  0
 70 72  1  0
 72 73  1  0
 73 74  1  0
 73 75  1  0
 75 76  2  0
 75 77  1  0
 77 78  1  0
 78 79  1  0
 79 80  1  0
 80 81  1  0
 81 82  2  0
 81 83  1  0
 78 84  1  0
 84 85  2  0
 84 86  1  0
 86 87  1  0
 87 88  1  0
 87 89  1  0
 89 90  2  0
 89 91  1  0
 91 92  1  0
 92 93  1  0
 93 94  1  0
 94 95  2  0
 95 96  1  0
 96 97  1  0
 97 98  2  0
 92 99  1  0
 99100  2  0
 99101  1  0
102101  1  6
102103  1  0
103104  1  0
104105  1  0
105106  1  0
106107  1  0
107108  1  0
108109  1  0
102110  1  0
102111  1  0
111112  2  0
111113  1  0
113114  1  0
114115  1  0
115116  1  0
116117  1  0
116118  1  0
114119  1  0
119120  2  0
119121  1  0
121122  1  0
122123  1  0
123124  1  0
122125  1  0
125126  2  0
125127  1  0
127128  1  0
128129  1  0
129130  1  0
129131  1  0
128132  1  0
132133  2  0
132134  1  0
134135  1  0
135136  1  0
136137  1  0
137138  1  0
137139  1  0
135140  1  0
140141  2  0
140142  1  0
142143  1  0
143144  1  0
144145  1  0
145146  1  0
145147  1  0
143148  1  0
148149  2  0
148150  1  0
150151  1  0
151152  1  0
152153  1  0
153154  1  0
154155  2  0
154156  1  0
151157  1  0
157158  2  0
157159  1  0
159160  1  0
160161  1  0
161162  1  0
162163  1  0
163164  1  0
160165  1  0
160166  1  1
166167  2  0
166168  1  0
168169  1  0
169170  1  0
169171  1  0
171172  2  0
171173  1  0
173174  1  0
174175  1  0
175176  1  0
175177  1  0
177178  1  0
174179  1  0
179180  2  0
179181  1  0
181182  1  0
182183  1  0
183184  1  0
184185  1  0
185186  1  0
185187  2  0
182188  1  0
188189  2  0
188190  1  0
190191  1  0
191192  1  0
192193  1  0
193194  2  0
193195  1  0
191196  1  0
196197  2  0
196198  1  0
198199  1  0
199200  1  0
200201  1  0
200202  1  0
199203  1  0
203204  2  0
203205  1  0
205206  1  0
206207  1  0
207208  1  0
206209  1  0
209210  2  0
209211  1  0
211212  1  0
212213  1  0
213214  1  0
214215  1  0
215216  1  0
216217  1  0
217218  2  3
217219  1  0
212220  1  0
220221  2  0
220222  1  0
222223  1  0
223224  1  0
224225  1  0
225226  1  0
226227  2  0
226228  1  0
223229  1  0
229230  2  0
229231  1  0
231232  1  0
232233  1  0
233234  1  0
234235  1  0
235236  1  0
235237  2  0
232238  1  0
238239  2  0
238240  1  0
  8  3  1  0
 98 94  1  0
 11  6  1  0
 18 13  2  0
109164  2  0
 22  9  1  0
 26 21  1  0
  2241  1  0
  4242  1  0
  5243  1  0
  8244  1  0
 15245  1  0
 17246  1  0
 18247  1  0
 19248  1  0
 23249  1  0
 24250  1  0
 26251  1  0
 27252  1  0
 29253  1  0
 30254  1  0
 30255  1  0
 31256  1  0
 31257  1  0
 34258  1  0
 35259  1  1
 36260  1  0
 36261  1  0
 37262  1  0
 40263  1  0
 41264  1  1
 42265  1  0
 42266  1  0
 43267  1  0
 43268  1  0
 49269  1  0
 50270  1  1
 51271  1  0
 51272  1  0
 52273  1  0
 52274  1  0
 58275  1  0
 59276  1  1
 60277  1  0
 60278  1  0
 61279  1  0
 62280  1  0
 62281  1  0
 62282  1  0
 63283  1  0
 63284  1  0
 63285  1  0
 66286  1  0
 67287  1  1
 68288  1  0
 68289  1  0
 69290  1  0
 69291  1  0
 69292  1  0
 72293  1  0
 73294  1  1
 74295  1  0
 74296  1  0
 74297  1  0
 77298  1  0
 78299  1  1
 79300  1  0
 79301  1  0
 80302  1  0
 80303  1  0
 86304  1  0
 87305  1  1
 88306  1  0
 88307  1  0
 88308  1  0
 91309  1  0
 92310  1  1
 93311  1  0
 93312  1  0
 95313  1  0
 96314  1  0
 97315  1  0
101316  1  0
103317  1  0
103318  1  0
104319  1  0
104320  1  0
105321  1  0
105322  1  0
106323  1  0
106324  1  0
107325  1  0
107326  1  0
108327  1  0
108328  1  0
109329  1  0
110330  1  0
110331  1  0
110332  1  0
113333  1  0
114334  1  6
115335  1  0
115336  1  0
116337  1  0
117338  1  0
117339  1  0
117340  1  0
118341  1  0
118342  1  0
118343  1  0
121344  1  0
122345  1  6
123346  1  0
123347  1  0
124348  1  0
127349  1  0
128350  1  6
129351  1  1
130352  1  0
131353  1  0
131354  1  0
131355  1  0
134356  1  0
135357  1  6
136358  1  0
136359  1  0
137360  1  0
138361  1  0
138362  1  0
138363  1  0
139364  1  0
139365  1  0
139366  1  0
142367  1  0
143368  1  6
144369  1  0
144370  1  0
145371  1  0
146372  1  0
146373  1  0
146374  1  0
147375  1  0
147376  1  0
147377  1  0
150378  1  0
151379  1  6
152380  1  0
152381  1  0
153382  1  0
153383  1  0
159384  1  0
161385  1  0
161386  1  0
162387  1  0
162388  1  0
163389  1  0
163390  1  0
164391  1  0
165392  1  0
165393  1  0
165394  1  0
168395  1  0
169396  1  1
170397  1  0
170398  1  0
170399  1  0
173400  1  0
174401  1  6
175402  1  1
176403  1  0
176404  1  0
176405  1  0
177406  1  0
177407  1  0
178408  1  0
178409  1  0
178410  1  0
181411  1  0
182412  1  1
183413  1  0
183414  1  0
184415  1  0
184416  1  0
186417  1  0
186418  1  0
190419  1  0
191420  1  6
192421  1  0
192422  1  0
198423  1  0
199424  1  1
200425  1  1
201426  1  0
202427  1  0
202428  1  0
202429  1  0
205430  1  0
206431  1  6
207432  1  0
207433  1  0
208434  1  0
208435  1  0
208436  1  0
211437  1  0
212438  1  1
213439  1  0
213440  1  0
214441  1  0
214442  1  0
215443  1  0
215444  1  0
216445  1  0
218446  1  0
218447  1  0
219448  1  0
219449  1  0
222450  1  0
223451  1  6
224452  1  0
224453  1  0
225454  1  0
225455  1  0
231456  1  0
232457  1  1
233458  1  0
233459  1  0
234460  1  0
234461  1  0
236462  1  0
236463  1  0
M  CHG  8  46  -1  55  -1  83  -1 156  -1 195  -1 218   1 228  -1 240  -1
M  END
