
     RDKit          2D

247257  0  0  0  0  0  0  0  0999 V2000
   12.5163   -1.3129    0.0000 C   0  0  0  0  0  0  0  0  0  0  0  0
   13.8938   -1.9066    0.0000 N   0  0  0  0  0  0  0  0  0  0  0  0
   14.0684   -3.3964    0.0000 C   0  0  0  0  0  0  0  0  0  0  0  0
   12.8655   -4.2925    0.0000 C   0  0  0  0  0  0  0  0  0  0  0  0
   13.0401   -5.7823    0.0000 C   0  0  0  0  0  0  0  0  0  0  0  0
   14.4176   -6.3760    0.0000 C   0  0  0  0  0  0  0  0  0  0  0  0
   15.6206   -5.4799    0.0000 C   0  0  0  0  0  0  0  0  0  0  0  0
   15.4460   -3.9901    0.0000 C   0  0  0  0  0  0  0  0  0  0  0  0
   16.8445   -6.3470    0.0000 C   0  0  0  0  0  0  0  0  0  0  0  0
   16.3981   -7.7790    0.0000 O   0  0  0  0  0  0  0  0  0  0  0  0
   14.8982   -7.7970    0.0000 C   0  0  0  0  0  0  0  0  0  0  0  0
   14.0311   -9.0209    0.0000 O   0  0  0  0  0  0  0  0  0  0  0  0
   17.9712   -7.3373    0.0000 C   0  0  0  0  0  0  0  0  0  0  0  0
   19.3921   -6.8568    0.0000 C   0  0  0  0  0  0  0  0  0  0  0  0
   20.5187   -7.8471    0.0000 C   0  0  0  0  0  0  0  0  0  0  0  0
   20.2244   -9.3179    0.0000 C   0  0  0  0  0  0  0  0  0  0  0  0
   18.8035   -9.7985    0.0000 C   0  0  0  0  0  0  0  0  0  0  0  0
   17.6768   -8.8082    0.0000 C   0  0  0  0  0  0  0  0  0  0  0  0
   21.3510  -10.3083    0.0000 O   0  0  0  0  0  0  0  0  0  0  0  0
   19.6864   -5.3860    0.0000 O   0  0  0  0  0  0  0  0  0  0  0  0
   18.5598   -4.3956    0.0000 C   0  0  0  0  0  0  0  0  0  0  0  0
   17.1388   -4.8762    0.0000 C   0  0  0  0  0  0  0  0  0  0  0  0
   16.6753   -3.6616    0.0000 C   0  0  0  0  0  0  0  0  0  0  0  0
   16.8323   -2.8772    0.0000 C   0  0  0  0  0  0  0  0  0  0  0  0
   17.5901   -2.6209    0.0000 C   0  0  0  0  0  0  0  0  0  0  0  0
   18.1910   -3.1491    0.0000 C   0  0  0  0  0  0  0  0  0  0  0  0
   18.0218   -0.4637    0.0000 O   0  0  0  0  0  0  0  0  0  0  0  0
   11.3134   -2.2090    0.0000 S   0  0  0  0  0  0  0  0  0  0  0  0
   12.3417    0.1769    0.0000 N   0  0  0  0  0  0  0  0  0  0  0  0
   10.9642    0.7706    0.0000 C   0  0  0  0  0  0  0  0  0  0  0  0
   10.7896    2.2604    0.0000 C   0  0  0  0  0  0  0  0  0  0  0  0
    9.4121    2.8541    0.0000 C   0  0  0  0  0  0  0  0  0  0  0  0
    8.6103    1.5863    0.0000 O   0  0  0  0  0  0  0  0  0  0  0  0
    9.2375    4.3439    0.0000 N   0  0  0  0  0  0  0  0  0  0  0  0
    7.8600    4.9376    0.0000 C   0  0  0  0  0  0  0  0  0  0  0  0
    7.8854    3.4378    0.0000 C   0  0  0  0  0  0  0  0  0  0  0  0
    7.4676    1.9972    0.0000 C   0  0  0  0  0  0  0  0  0  0  0  0
    6.6437    0.7437    0.0000 C   0  0  0  0  0  0  0  0  0  0  0  0
    5.4870   -0.2113    0.0000 C   0  0  0  0  0  0  0  0  0  0  0  0
    8.9677    5.9490    0.0000 C   0  0  0  0  0  0  0  0  0  0  0  0
    7.3937    6.3633    0.0000 C   0  0  0  0  0  0  0  0  0  0  0  0
    8.7339    7.0369    0.0000 O   0  0  0  0  0  0  0  0  0  0  0  0
    6.5278    7.5881    0.0000 N   0  0  0  0  0  0  0  0  0  0  0  0
    5.3394    8.5034    0.0000 C   0  0  0  0  0  0  0  0  0  0  0  0
    5.2393   10.0000    0.0000 C   0  0  0  0  0  0  0  0  0  0  0  0
    6.4854   10.8351    0.0000 C   0  0  0  0  0  0  0  0  0  0  0  0
    6.3853   12.3317    0.0000 O   0  0  0  0  0  0  0  0  0  0  0  0
    7.8316   10.1734    0.0000 O   0  0  0  0  0  0  0  0  0  0  0  0
    3.9340    9.0277    0.0000 C   0  0  0  0  0  0  0  0  0  0  0  0
    4.2430   10.4955    0.0000 O   0  0  0  0  0  0  0  0  0  0  0  0
    2.4365    9.1144    0.0000 N   0  0  0  0  0  0  0  0  0  0  0  0
    0.9800    8.7559    0.0000 C   0  0  0  0  0  0  0  0  0  0  0  0
   -0.2525    9.6108    0.0000 C   0  0  0  0  0  0  0  0  0  0  0  0
   -0.1285   11.1057    0.0000 C   0  0  0  0  0  0  0  0  0  0  0  0
    1.2281   11.7456    0.0000 C   0  0  0  0  0  0  0  0  0  0  0  0
    1.3522   13.2405    0.0000 C   0  0  0  0  0  0  0  0  0  0  0  0
    0.1196   14.0954    0.0000 C   0  0  0  0  0  0  0  0  0  0  0  0
   -1.2370   13.4554    0.0000 C   0  0  0  0  0  0  0  0  0  0  0  0
   -1.3610   11.9605    0.0000 C   0  0  0  0  0  0  0  0  0  0  0  0
   -0.3061    7.9840    0.0000 C   0  0  0  0  0  0  0  0  0  0  0  0
   -1.2611    9.1408    0.0000 O   0  0  0  0  0  0  0  0  0  0  0  0
   -1.3076    6.8673    0.0000 N   0  0  0  0  0  0  0  0  0  0  0  0
   -1.9355    5.5051    0.0000 C   0  0  0  0  0  0  0  0  0  0  0  0
   -3.3723    5.0744    0.0000 C   0  0  0  0  0  0  0  0  0  0  0  0
   -4.1823    6.3369    0.0000 O   0  0  0  0  0  0  0  0  0  0  0  0
   -2.1339    4.0182    0.0000 C   0  0  0  0  0  0  0  0  0  0  0  0
   -3.1992    4.2648    0.0000 O   0  0  0  0  0  0  0  0  0  0  0  0
   -1.8853    2.5390    0.0000 N   0  0  0  0  0  0  0  0  0  0  0  0
   -1.2117    1.1988    0.0000 C   0  0  0  0  0  0  0  0  0  0  0  0
   -0.1729    0.1166    0.0000 C   0  0  0  0  0  0  0  0  0  0  0  0
    1.1386   -0.6113    0.0000 C   0  0  0  0  0  0  0  0  0  0  0  0
    2.6065   -0.9203    0.0000 C   0  0  0  0  0  0  0  0  0  0  0  0
    4.1002   -0.7829    0.0000 C   0  0  0  0  0  0  0  0  0  0  0  0
   -1.2033   -0.3591    0.0000 C   0  0  0  0  0  0  0  0  0  0  0  0
   -0.9893   -1.6326    0.0000 C   0  0  0  0  0  0  0  0  0  0  0  0
   -1.1601   -2.9126    0.0000 C   0  0  0  0  0  0  0  0  0  0  0  0
   -1.7006   -4.0854    0.0000 C   0  0  0  0  0  0  0  0  0  0  0  0
   -2.6775    1.7263    0.0000 C   0  0  0  0  0  0  0  0  0  0  0  0
   -1.3351    3.4693    0.0000 O   0  0  0  0  0  0  0  0  0  0  0  0
   -3.8066    2.3530    0.0000 N   0  0  0  0  0  0  0  0  0  0  0  0
   -5.0703    2.6189    0.0000 C   0  0  0  0  0  0  0  0  0  0  0  0
   -5.7693    4.6228    0.0000 C   0  0  0  0  0  0  0  0  0  0  0  0
   -5.0090    5.9158    0.0000 C   0  0  0  0  0  0  0  0  0  0  0  0
   -3.5090    5.9038    0.0000 C   0  0  0  0  0  0  0  0  0  0  0  0
   -2.7487    7.1968    0.0000 C   0  0  0  0  0  0  0  0  0  0  0  0
   -3.4882    8.5018    0.0000 C   0  0  0  0  0  0  0  0  0  0  0  0
   -2.7279    9.7948    0.0000 O   0  0  0  0  0  0  0  0  0  0  0  0
   -4.9882    8.5138    0.0000 C   0  0  0  0  0  0  0  0  0  0  0  0
   -5.7486    7.2208    0.0000 C   0  0  0  0  0  0  0  0  0  0  0  0
   -6.3562    2.5007    0.0000 C   0  0  0  0  0  0  0  0  0  0  0  0
   -6.8820    4.6369    0.0000 O   0  0  0  0  0  0  0  0  0  0  0  0
   -7.5501    2.0086    0.0000 N   0  0  0  0  0  0  0  0  0  0  0  0
   -8.5459    1.1865    0.0000 C   0  0  0  0  0  0  0  0  0  0  0  0
  -10.5484    1.8893    0.0000 C   0  0  0  0  0  0  0  0  0  0  0  0
  -11.0853    3.2899    0.0000 C   0  0  0  0  0  0  0  0  0  0  0  0
  -10.2677    4.5475    0.0000 C   0  0  0  0  0  0  0  0  0  0  0  0
  -11.2110    5.7137    0.0000 N   0  0  0  0  0  0  0  0  0  0  0  0
  -12.6117    5.1769    0.0000 C   0  0  0  0  0  0  0  0  0  0  0  0
  -13.9478    5.8586    0.0000 C   0  0  0  0  0  0  0  0  0  0  0  0
  -15.2063    5.0423    0.0000 C   0  0  0  0  0  0  0  0  0  0  0  0
  -15.1285    3.5443    0.0000 C   0  0  0  0  0  0  0  0  0  0  0  0
  -13.7924    2.8626    0.0000 C   0  0  0  0  0  0  0  0  0  0  0  0
  -12.5340    3.6789    0.0000 C   0  0  0  0  0  0  0  0  0  0  0  0
   -9.2552    0.1074    0.0000 C   0  0  0  0  0  0  0  0  0  0  0  0
  -11.2532    1.0282    0.0000 O   0  0  0  0  0  0  0  0  0  0  0  0
   -9.6149   -1.1329    0.0000 N   0  0  0  0  0  0  0  0  0  0  0  0
   -9.5930   -2.4240    0.0000 C   0  0  0  0  0  0  0  0  0  0  0  0
  -11.3910   -3.5515    0.0000 C   0  0  0  0  0  0  0  0  0  0  0  0
  -12.8208   -3.0979    0.0000 C   0  0  0  0  0  0  0  0  0  0  0  0
  -13.9285   -4.1093    0.0000 C   0  0  0  0  0  0  0  0  0  0  0  0
  -15.3583   -3.6557    0.0000 C   0  0  0  0  0  0  0  0  0  0  0  0
  -16.4660   -4.6672    0.0000 N   0  0  0  0  0  0  0  0  0  0  0  0
   -9.1915   -3.6514    0.0000 C   0  0  0  0  0  0  0  0  0  0  0  0
  -11.1572   -4.6393    0.0000 O   0  0  0  0  0  0  0  0  0  0  0  0
   -8.4461   -4.7059    0.0000 N   0  0  0  0  0  0  0  0  0  0  0  0
   -7.4230   -5.4938    0.0000 C   0  0  0  0  0  0  0  0  0  0  0  0
   -6.2131   -5.9452    0.0000 C   0  0  0  0  0  0  0  0  0  0  0  0
   -4.9240   -6.0198    0.0000 C   0  0  0  0  0  0  0  0  0  0  0  0
   -3.6700   -5.7112    0.0000 C   0  0  0  0  0  0  0  0  0  0  0  0
   -2.5628   -5.0467    0.0000 C   0  0  0  0  0  0  0  0  0  0  0  0
   -9.0858   -6.8127    0.0000 C   0  0  0  0  0  0  0  0  0  0  0  0
   -7.6626   -7.6025    0.0000 C   0  0  0  0  0  0  0  0  0  0  0  0
   -6.5165   -8.5702    0.0000 O   0  0  0  0  0  0  0  0  0  0  0  0
   -8.9087   -8.4375    0.0000 N   0  0  0  0  0  0  0  0  0  0  0  0
   -8.8086   -9.9342    0.0000 C   0  0  0  0  0  0  0  0  0  0  0  0
   -8.2026  -11.3064    0.0000 C   0  0  0  0  0  0  0  0  0  0  0  0
   -9.0879  -12.5172    0.0000 C   0  0  0  0  0  0  0  0  0  0  0  0
   -8.4819  -13.8894    0.0000 C   0  0  0  0  0  0  0  0  0  0  0  0
  -10.3340  -13.3523    0.0000 C   0  0  0  0  0  0  0  0  0  0  0  0
  -10.0546  -10.7692    0.0000 C   0  0  0  0  0  0  0  0  0  0  0  0
  -10.1377  -12.2669    0.0000 O   0  0  0  0  0  0  0  0  0  0  0  0
  -11.4008  -10.1076    0.0000 O   0  0  0  0  0  0  0  0  0  0  0  0
   14.9786   -0.8705    0.0000 H   0  0  0  0  0  0  0  0  0  0  0  0
   11.4880   -3.6988    0.0000 H   0  0  0  0  0  0  0  0  0  0  0  0
   11.8372   -6.6784    0.0000 H   0  0  0  0  0  0  0  0  0  0  0  0
   15.9510   -3.3733    0.0000 H   0  0  0  0  0  0  0  0  0  0  0  0
   21.9397   -7.3666    0.0000 H   0  0  0  0  0  0  0  0  0  0  0  0
   18.5091  -11.2693    0.0000 H   0  0  0  0  0  0  0  0  0  0  0  0
   16.2559   -9.2887    0.0000 H   0  0  0  0  0  0  0  0  0  0  0  0
   21.0567  -11.7791    0.0000 H   0  0  0  0  0  0  0  0  0  0  0  0
   14.5913   -4.3664    0.0000 H   0  0  0  0  0  0  0  0  0  0  0  0
   15.3090   -1.2948    0.0000 H   0  0  0  0  0  0  0  0  0  0  0  0
   20.2751   -2.4443    0.0000 H   0  0  0  0  0  0  0  0  0  0  0  0
   19.4428    0.0169    0.0000 H   0  0  0  0  0  0  0  0  0  0  0  0
   13.5446    1.0730    0.0000 H   0  0  0  0  0  0  0  0  0  0  0  0
   10.6188   -0.6891    0.0000 H   0  0  0  0  0  0  0  0  0  0  0  0
    9.4667    0.8573    0.0000 H   0  0  0  0  0  0  0  0  0  0  0  0
   12.2871    2.1736    0.0000 H   0  0  0  0  0  0  0  0  0  0  0  0
   11.1351    3.7201    0.0000 H   0  0  0  0  0  0  0  0  0  0  0  0
   10.5407    5.0867    0.0000 H   0  0  0  0  0  0  0  0  0  0  0  0
    9.3566    3.7305    0.0000 H   0  0  0  0  0  0  0  0  0  0  0  0
    8.8996    2.3326    0.0000 H   0  0  0  0  0  0  0  0  0  0  0  0
    8.8781    1.4868    0.0000 H   0  0  0  0  0  0  0  0  0  0  0  0
    8.4197    0.8381    0.0000 H   0  0  0  0  0  0  0  0  0  0  0  0
    8.0854    0.3294    0.0000 H   0  0  0  0  0  0  0  0  0  0  0  0
    7.0384   -0.7035    0.0000 H   0  0  0  0  0  0  0  0  0  0  0  0
    6.2589   -1.4974    0.0000 H   0  0  0  0  0  0  0  0  0  0  0  0
   10.4421    5.6731    0.0000 H   0  0  0  0  0  0  0  0  0  0  0  0
    9.6627    7.2783    0.0000 H   0  0  0  0  0  0  0  0  0  0  0  0
    8.0361    7.1246    0.0000 H   0  0  0  0  0  0  0  0  0  0  0  0
    7.6100    8.6269    0.0000 H   0  0  0  0  0  0  0  0  0  0  0  0
    6.6624    9.2102    0.0000 H   0  0  0  0  0  0  0  0  0  0  0  0
    4.6333   11.3722    0.0000 H   0  0  0  0  0  0  0  0  0  0  0  0
    3.7393   10.0046    0.0000 H   0  0  0  0  0  0  0  0  0  0  0  0
    2.4822   10.6137    0.0000 H   0  0  0  0  0  0  0  0  0  0  0  0
    1.2523   10.2310    0.0000 H   0  0  0  0  0  0  0  0  0  0  0  0
   -1.7032    9.9926    0.0000 H   0  0  0  0  0  0  0  0  0  0  0  0
   -1.1914    8.4409    0.0000 H   0  0  0  0  0  0  0  0  0  0  0  0
    2.5557   11.0474    0.0000 H   0  0  0  0  0  0  0  0  0  0  0  0
    2.7088   13.8805    0.0000 H   0  0  0  0  0  0  0  0  0  0  0  0
    0.2437   15.5902    0.0000 H   0  0  0  0  0  0  0  0  0  0  0  0
   -2.4695   14.3103    0.0000 H   0  0  0  0  0  0  0  0  0  0  0  0
   -2.7856   11.4907    0.0000 H   0  0  0  0  0  0  0  0  0  0  0  0
   -2.3245    7.9700    0.0000 H   0  0  0  0  0  0  0  0  0  0  0  0
   -2.6157    6.8420    0.0000 H   0  0  0  0  0  0  0  0  0  0  0  0
   -4.6755    4.3316    0.0000 H   0  0  0  0  0  0  0  0  0  0  0  0
   -3.4069    3.5748    0.0000 H   0  0  0  0  0  0  0  0  0  0  0  0
   -5.9006    5.6728    0.0000 H   0  0  0  0  0  0  0  0  0  0  0  0
   -3.3109    2.0727    0.0000 H   0  0  0  0  0  0  0  0  0  0  0  0
   -0.1138   -1.3822    0.0000 H   0  0  0  0  0  0  0  0  0  0  0  0
   -1.5865   -0.3851    0.0000 H   0  0  0  0  0  0  0  0  0  0  0  0
    1.6369   -2.0261    0.0000 H   0  0  0  0  0  0  0  0  0  0  0  0
    0.3369   -1.8790    0.0000 H   0  0  0  0  0  0  0  0  0  0  0  0
    3.3460   -2.2253    0.0000 H   0  0  0  0  0  0  0  0  0  0  0  0
    2.0404   -2.3094    0.0000 H   0  0  0  0  0  0  0  0  0  0  0  0
    4.4586   -2.2394    0.0000 H   0  0  0  0  0  0  0  0  0  0  0  0
    0.4066    1.0237    0.0000 H   0  0  0  0  0  0  0  0  0  0  0  0
    0.8552   -0.6972    0.0000 H   0  0  0  0  0  0  0  0  0  0  0  0
    1.1732   -1.2878    0.0000 H   0  0  0  0  0  0  0  0  0  0  0  0
    0.8782   -2.5624    0.0000 H   0  0  0  0  0  0  0  0  0  0  0  0
    1.0105   -3.0374    0.0000 H   0  0  0  0  0  0  0  0  0  0  0  0
    0.4957   -4.2401    0.0000 H   0  0  0  0  0  0  0  0  0  0  0  0
    0.1378   -5.2937    0.0000 H   0  0  0  0  0  0  0  0  0  0  0  0
   -3.5762    4.5087    0.0000 H   0  0  0  0  0  0  0  0  0  0  0  0
   -4.4637    4.7069    0.0000 H   0  0  0  0  0  0  0  0  0  0  0  0
   -6.9107    5.5961    0.0000 H   0  0  0  0  0  0  0  0  0  0  0  0
   -7.1228    3.9761    0.0000 H   0  0  0  0  0  0  0  0  0  0  0  0
   -2.7694    4.5988    0.0000 H   0  0  0  0  0  0  0  0  0  0  0  0
   -1.2904    7.5481    0.0000 H   0  0  0  0  0  0  0  0  0  0  0  0
   -3.6210   10.9999    0.0000 H   0  0  0  0  0  0  0  0  0  0  0  0
   -5.7278    9.8188    0.0000 H   0  0  0  0  0  0  0  0  0  0  0  0
   -7.2485    7.2328    0.0000 H   0  0  0  0  0  0  0  0  0  0  0  0
   -8.5196    3.9795    0.0000 H   0  0  0  0  0  0  0  0  0  0  0  0
   -9.4617    3.1010    0.0000 H   0  0  0  0  0  0  0  0  0  0  0  0
  -12.0210    1.6038    0.0000 H   0  0  0  0  0  0  0  0  0  0  0  0
  -10.8867    0.4279    0.0000 H   0  0  0  0  0  0  0  0  0  0  0  0
   -8.7903    4.8072    0.0000 H   0  0  0  0  0  0  0  0  0  0  0  0
  -10.8220    7.1624    0.0000 H   0  0  0  0  0  0  0  0  0  0  0  0
  -14.0256    7.3566    0.0000 H   0  0  0  0  0  0  0  0  0  0  0  0
  -16.5424    5.7240    0.0000 H   0  0  0  0  0  0  0  0  0  0  0  0
  -16.3870    2.7280    0.0000 H   0  0  0  0  0  0  0  0  0  0  0  0
  -13.7147    1.3646    0.0000 H   0  0  0  0  0  0  0  0  0  0  0  0
  -11.7955   -0.8419    0.0000 H   0  0  0  0  0  0  0  0  0  0  0  0
  -11.5782   -1.7829    0.0000 H   0  0  0  0  0  0  0  0  0  0  0  0
  -11.9188   -4.9556    0.0000 H   0  0  0  0  0  0  0  0  0  0  0  0
  -10.4594   -4.7271    0.0000 H   0  0  0  0  0  0  0  0  0  0  0  0
  -13.8888   -2.0446    0.0000 H   0  0  0  0  0  0  0  0  0  0  0  0
  -12.2930   -1.6938    0.0000 H   0  0  0  0  0  0  0  0  0  0  0  0
  -14.4563   -5.5134    0.0000 H   0  0  0  0  0  0  0  0  0  0  0  0
  -12.8605   -5.1626    0.0000 H   0  0  0  0  0  0  0  0  0  0  0  0
  -16.5467   -2.7405    0.0000 H   0  0  0  0  0  0  0  0  0  0  0  0
  -14.8305   -2.2517    0.0000 H   0  0  0  0  0  0  0  0  0  0  0  0
  -17.8958   -4.2136    0.0000 H   0  0  0  0  0  0  0  0  0  0  0  0
  -17.1610   -5.9965    0.0000 H   0  0  0  0  0  0  0  0  0  0  0  0
  -15.3980   -5.7205    0.0000 H   0  0  0  0  0  0  0  0  0  0  0  0
  -10.0333   -6.2293    0.0000 H   0  0  0  0  0  0  0  0  0  0  0  0
   -5.8205   -8.0308    0.0000 H   0  0  0  0  0  0  0  0  0  0  0  0
   -7.1241   -7.9194    0.0000 H   0  0  0  0  0  0  0  0  0  0  0  0
   -4.0848   -8.0011    0.0000 H   0  0  0  0  0  0  0  0  0  0  0  0
   -5.2125   -8.1749    0.0000 H   0  0  0  0  0  0  0  0  0  0  0  0
   -2.1708   -7.2133    0.0000 H   0  0  0  0  0  0  0  0  0  0  0  0
   -3.4938   -7.8557    0.0000 H   0  0  0  0  0  0  0  0  0  0  0  0
   -1.1622   -6.7433    0.0000 H   0  0  0  0  0  0  0  0  0  0  0  0
   -9.4964   -8.2554    0.0000 H   0  0  0  0  0  0  0  0  0  0  0  0
  -10.5855   -6.8418    0.0000 H   0  0  0  0  0  0  0  0  0  0  0  0
   -9.8832   -5.5422    0.0000 H   0  0  0  0  0  0  0  0  0  0  0  0
  -10.3255   -7.9450    0.0000 H   0  0  0  0  0  0  0  0  0  0  0  0
   -7.3520   -9.5757    0.0000 H   0  0  0  0  0  0  0  0  0  0  0  0
   -7.0397  -12.2538    0.0000 H   0  0  0  0  0  0  0  0  0  0  0  0
   -6.9565  -10.4713    0.0000 H   0  0  0  0  0  0  0  0  0  0  0  0
  -10.4455  -11.8793    0.0000 H   0  0  0  0  0  0  0  0  0  0  0  0
   -9.2131  -15.1991    0.0000 H   0  0  0  0  0  0  0  0  0  0  0  0
   -7.4432  -14.9715    0.0000 H   0  0  0  0  0  0  0  0  0  0  0  0
   -7.1434  -13.2124    0.0000 H   0  0  0  0  0  0  0  0  0  0  0  0
  -10.4171  -14.8499    0.0000 H   0  0  0  0  0  0  0  0  0  0  0  0
  -11.7905  -13.7107    0.0000 H   0  0  0  0  0  0  0  0  0  0  0  0
  -10.9400  -11.9801    0.0000 H   0  0  0  0  0  0  0  0  0  0  0  0
  1  2  1  0
  2  3  1  0
  3  4  2  0
  4  5  1  0
  5  6  2  0
  6  7  1  0
  7  8  2  0
  7  9  1  0
  9 10  1  0
 10 11  1  0
 11 12  2  0
  9 13  1  0
 13 14  1  0
 14 15  2  0
 15 16  1  0
 16 17  2  0
 17 18  1  0
 16 19  1  0
 14 20  1  0
 20 21  1  0
 21 22  2  0
 22 23  1  0
 23 24  2  0
 24 25  1  0
 25 26  2  0
 25 27  1  0
  1 28  2  0
  1 29  1  0
 29 30  1  0
 30 31  1  0
 31 32  1  0
 32 33  2  0
 32 34  1  0
 35 34  1  1
 35 36  1  0
 36 37  1  0
 37 38  1  0
 38 39  1  0
 35 40  1  0
 35 41  1  0
 41 42  2  0
 41 43  1  0
 43 44  1  0
 44 45  1  0
 45 46  1  0
 46 47  2  0
 46 48  1  0
 44 49  1  0
 49 50  2  0
 49 51  1  0
 51 52  1  0
 52 53  1  0
 53 54  1  0
 54 55  2  0
 55 56  1  0
 56 57  2  0
 57 58  1  0
 58 59  2  0
 52 60  1  0
 60 61  2  0
 60 62  1  0
 62 63  1  0
 63 64  1  0
 64 65  1  0
 63 66  1  0
 66 67  2  0
 66 68  1  0
 68 69  1  0
 69 70  1  0
 70 71  1  0
 71 72  1  0
 72 73  1  0
 69 74  1  0
 74 75  1  0
 75 76  1  0
 76 77  1  0
 69 78  1  0
 78 79  2  0
 78 80  1  0
 80 81  1  0
 81 82  1  0
 82 83  1  0
 83 84  2  0
 84 85  1  0
 85 86  2  0
 86 87  1  0
 86 88  1  0
 88 89  2  0
 81 90  1  0
 90 91  2  0
 90 92  1  0
 92 93  1  0
 93 94  1  0
 94 95  1  0
 95 96  2  0
 96 97  1  0
 97 98  1  0
 98 99  2  0
 99100  1  0
100101  2  0
101102  1  0
102103  2  0
 93104  1  0
104105  2  0
104106  1  0
106107  1  0
107108  1  0
108109  1  0
109110  1  0
110111  1  0
111112  1  0
107113  1  0
113114  2  0
113115  1  0
115116  1  0
116117  1  0
117118  1  0
118119  1  0
119120  1  0
116121  1  0
116122  1  6
122123  2  0
122124  1  0
124125  1  0
125126  1  0
126127  1  0
127128  1  0
127129  1  0
125130  1  0
130131  2  0
130132  1  0
  8  3  1  0
 59 54  1  0
 89 83  1  0
103 95  1  0
 11  6  1  0
103 98  1  0
 18 13  2  0
 39 73  2  0
 22  9  1  0
 77120  2  0
 26 21  1  0
  2133  1  0
  4134  1  0
  5135  1  0
  8136  1  0
 15137  1  0
 17138  1  0
 18139  1  0
 19140  1  0
 23141  1  0
 24142  1  0
 26143  1  0
 27144  1  0
 29145  1  0
 30146  1  0
 30147  1  0
 31148  1  0
 31149  1  0
 34150  1  0
 36151  1  0
 36152  1  0
 37153  1  0
 37154  1  0
 38155  1  0
 38156  1  0
 39157  1  0
 40158  1  0
 40159  1  0
 40160  1  0
 43161  1  0
 44162  1  6
 45163  1  0
 45164  1  0
 51165  1  0
 52166  1  6
 53167  1  0
 53168  1  0
 55169  1  0
 56170  1  0
 57171  1  0
 58172  1  0
 59173  1  0
 62174  1  0
 63175  1  6
 64176  1  0
 64177  1  0
 65178  1  0
 68179  1  0
 70180  1  0
 70181  1  0
 71182  1  0
 71183  1  0
 72184  1  0
 72185  1  0
 73186  1  0
 74187  1  0
 74188  1  0
 75189  1  0
 75190  1  0
 76191  1  0
 76192  1  0
 77193  1  0
 80194  1  0
 81195  1  6
 82196  1  0
 82197  1  0
 84198  1  0
 85199  1  0
 87200  1  0
 88201  1  0
 89202  1  0
 92203  1  0
 93204  1  6
 94205  1  0
 94206  1  0
 96207  1  0
 97208  1  0
 99209  1  0
100210  1  0
101211  1  0
102212  1  0
106213  1  0
107214  1  6
108215  1  0
108216  1  0
109217  1  0
109218  1  0
110219  1  0
110220  1  0
111221  1  0
111222  1  0
112223  1  0
112224  1  0
112225  1  0
115226  1  0
117227  1  0
117228  1  0
118229  1  0
118230  1  0
119231  1  0
119232  1  0
120233  1  0
121234  1  0
121235  1  0
121236  1  0
124237  1  0
125238  1  1
126239  1  0
126240  1  0
127241  1  0
128242  1  0
128243  1  0
128244  1  0
129245  1  0
129246  1  0
129247  1  0
M  CHG  3  48  -1 112   1 132  -1
M  END
