
     RDKit          2D

423431  0  0  0  0  0  0  0  0999 V2000
   25.5018   -4.0577    0.0000 C   0  0  0  0  0  0  0  0  0  0  0  0
   26.8787   -3.4625    0.0000 N   0  0  0  0  0  0  0  0  0  0  0  0
   28.0825   -4.3574    0.0000 C   0  0  0  0  0  0  0  0  0  0  0  0
   27.9095   -5.8474    0.0000 C   0  0  0  0  0  0  0  0  0  0  0  0
   29.1133   -6.7422    0.0000 C   0  0  0  0  0  0  0  0  0  0  0  0
   30.4902   -6.1471    0.0000 C   0  0  0  0  0  0  0  0  0  0  0  0
   30.6633   -4.6571    0.0000 C   0  0  0  0  0  0  0  0  0  0  0  0
   29.4594   -3.7623    0.0000 C   0  0  0  0  0  0  0  0  0  0  0  0
   32.1338   -4.3612    0.0000 C   0  0  0  0  0  0  0  0  0  0  0  0
   32.8696   -5.6684    0.0000 O   0  0  0  0  0  0  0  0  0  0  0  0
   31.8538   -6.7721    0.0000 C   0  0  0  0  0  0  0  0  0  0  0  0
   32.1497   -8.2426    0.0000 O   0  0  0  0  0  0  0  0  0  0  0  0
   33.6272   -4.2207    0.0000 C   0  0  0  0  0  0  0  0  0  0  0  0
   34.2522   -2.8571    0.0000 C   0  0  0  0  0  0  0  0  0  0  0  0
   35.7456   -2.7166    0.0000 C   0  0  0  0  0  0  0  0  0  0  0  0
   36.6140   -3.9396    0.0000 C   0  0  0  0  0  0  0  0  0  0  0  0
   35.9890   -5.3032    0.0000 C   0  0  0  0  0  0  0  0  0  0  0  0
   34.4956   -5.4438    0.0000 C   0  0  0  0  0  0  0  0  0  0  0  0
   38.1074   -3.7991    0.0000 O   0  0  0  0  0  0  0  0  0  0  0  0
   33.3838   -1.6340    0.0000 O   0  0  0  0  0  0  0  0  0  0  0  0
   31.8904   -1.7746    0.0000 C   0  0  0  0  0  0  0  0  0  0  0  0
   31.2654   -3.1382    0.0000 C   0  0  0  0  0  0  0  0  0  0  0  0
   30.0637   -2.6424    0.0000 C   0  0  0  0  0  0  0  0  0  0  0  0
   29.6005   -1.9901    0.0000 C   0  0  0  0  0  0  0  0  0  0  0  0
   29.9338   -1.2628    0.0000 C   0  0  0  0  0  0  0  0  0  0  0  0
   30.7303   -1.1879    0.0000 C   0  0  0  0  0  0  0  0  0  0  0  0
   28.6602    0.5310    0.0000 O   0  0  0  0  0  0  0  0  0  0  0  0
   25.3288   -5.5477    0.0000 S   0  0  0  0  0  0  0  0  0  0  0  0
   24.2980   -3.1628    0.0000 N   0  0  0  0  0  0  0  0  0  0  0  0
   22.9211   -3.7580    0.0000 C   0  0  0  0  0  0  0  0  0  0  0  0
   21.7172   -2.8631    0.0000 C   0  0  0  0  0  0  0  0  0  0  0  0
   20.3403   -3.4583    0.0000 C   0  0  0  0  0  0  0  0  0  0  0  0
   20.3456   -4.2554    0.0000 O   0  0  0  0  0  0  0  0  0  0  0  0
   19.1365   -2.5634    0.0000 N   0  0  0  0  0  0  0  0  0  0  0  0
   17.7596   -3.1586    0.0000 C   0  0  0  0  0  0  0  0  0  0  0  0
   18.5848   -4.4112    0.0000 C   0  0  0  0  0  0  0  0  0  0  0  0
   18.9318   -5.8705    0.0000 O   0  0  0  0  0  0  0  0  0  0  0  0
   20.0818   -4.5061    0.0000 C   0  0  0  0  0  0  0  0  0  0  0  0
   16.2622   -3.2469    0.0000 C   0  0  0  0  0  0  0  0  0  0  0  0
   15.9345   -4.7107    0.0000 O   0  0  0  0  0  0  0  0  0  0  0  0
   15.4370   -1.9943    0.0000 N   0  0  0  0  0  0  0  0  0  0  0  0
   13.9396   -2.0826    0.0000 C   0  0  0  0  0  0  0  0  0  0  0  0
   14.2866   -3.5419    0.0000 C   0  0  0  0  0  0  0  0  0  0  0  0
   15.7239   -3.9711    0.0000 C   0  0  0  0  0  0  0  0  0  0  0  0
   16.0709   -5.4304    0.0000 C   0  0  0  0  0  0  0  0  0  0  0  0
   17.5082   -5.8595    0.0000 N   0  0  0  0  0  0  0  0  0  0  0  0
   17.8552   -7.3188    0.0000 C   0  0  0  0  0  0  0  0  0  0  0  0
   19.2925   -7.7480    0.0000 N   0  0  0  0  0  0  0  0  0  0  0  0
   16.7649   -8.3490    0.0000 N   0  0  0  0  0  0  0  0  0  0  0  0
   12.5023   -1.6535    0.0000 C   0  0  0  0  0  0  0  0  0  0  0  0
   11.6937   -2.9169    0.0000 O   0  0  0  0  0  0  0  0  0  0  0  0
   12.1553   -0.1942    0.0000 N   0  0  0  0  0  0  0  0  0  0  0  0
   10.7180    0.2350    0.0000 C   0  0  0  0  0  0  0  0  0  0  0  0
   10.5450   -1.2550    0.0000 C   0  0  0  0  0  0  0  0  0  0  0  0
   11.7488   -2.1499    0.0000 C   0  0  0  0  0  0  0  0  0  0  0  0
   11.5758   -3.6399    0.0000 C   0  0  0  0  0  0  0  0  0  0  0  0
   12.6616   -4.6748    0.0000 N   0  0  0  0  0  0  0  0  0  0  0  0
   10.1989   -4.2350    0.0000 O   0  0  0  0  0  0  0  0  0  0  0  0
    9.5142    1.1298    0.0000 C   0  0  0  0  0  0  0  0  0  0  0  0
    8.4421    0.0807    0.0000 O   0  0  0  0  0  0  0  0  0  0  0  0
    9.6872    2.6198    0.0000 N   0  0  0  0  0  0  0  0  0  0  0  0
    8.4833    3.5146    0.0000 C   0  0  0  0  0  0  0  0  0  0  0  0
    8.1628    2.0493    0.0000 C   0  0  0  0  0  0  0  0  0  0  0  0
    7.4246    0.7435    0.0000 C   0  0  0  0  0  0  0  0  0  0  0  0
    6.3343   -0.2867    0.0000 C   0  0  0  0  0  0  0  0  0  0  0  0
    4.9888   -0.9497    0.0000 C   0  0  0  0  0  0  0  0  0  0  0  0
    9.7941    4.2439    0.0000 C   0  0  0  0  0  0  0  0  0  0  0  0
    8.3577    5.0094    0.0000 C   0  0  0  0  0  0  0  0  0  0  0  0
    9.8170    5.3564    0.0000 O   0  0  0  0  0  0  0  0  0  0  0  0
    7.7971    6.4007    0.0000 N   0  0  0  0  0  0  0  0  0  0  0  0
    6.8513    7.5649    0.0000 C   0  0  0  0  0  0  0  0  0  0  0  0
    7.0983    9.0444    0.0000 C   0  0  0  0  0  0  0  0  0  0  0  0
    8.5032    9.5702    0.0000 C   0  0  0  0  0  0  0  0  0  0  0  0
    8.7503   11.0497    0.0000 C   0  0  0  0  0  0  0  0  0  0  0  0
   10.1551   11.5755    0.0000 N   0  0  0  0  0  0  0  0  0  0  0  0
   10.4022   13.0550    0.0000 C   0  0  0  0  0  0  0  0  0  0  0  0
   11.8070   13.5807    0.0000 N   0  0  0  0  0  0  0  0  0  0  0  0
    9.2444   14.0087    0.0000 N   0  0  0  0  0  0  0  0  0  0  0  0
    5.6043    8.3986    0.0000 C   0  0  0  0  0  0  0  0  0  0  0  0
    6.2429    9.7559    0.0000 O   0  0  0  0  0  0  0  0  0  0  0  0
    4.1670    8.8278    0.0000 N   0  0  0  0  0  0  0  0  0  0  0  0
    2.6671    8.8142    0.0000 C   0  0  0  0  0  0  0  0  0  0  0  0
    1.6644    9.9298    0.0000 C   0  0  0  0  0  0  0  0  0  0  0  0
    2.1292   11.3560    0.0000 C   0  0  0  0  0  0  0  0  0  0  0  0
    1.1266   12.4716    0.0000 C   0  0  0  0  0  0  0  0  0  0  0  0
    1.5914   13.8978    0.0000 N   0  0  0  0  0  0  0  0  0  0  0  0
    0.5887   15.0134    0.0000 C   0  0  0  0  0  0  0  0  0  0  0  0
    1.0536   16.4396    0.0000 N   0  0  0  0  0  0  0  0  0  0  0  0
   -0.8788   14.7029    0.0000 N   0  0  0  0  0  0  0  0  0  0  0  0
    1.2378    8.3591    0.0000 C   0  0  0  0  0  0  0  0  0  0  0  0
    0.5747    9.7046    0.0000 O   0  0  0  0  0  0  0  0  0  0  0  0
    0.0061    7.5029    0.0000 N   0  0  0  0  0  0  0  0  0  0  0  0
   -0.9185    6.3218    0.0000 C   0  0  0  0  0  0  0  0  0  0  0  0
   -2.4159    6.2334    0.0000 C   0  0  0  0  0  0  0  0  0  0  0  0
   -3.2411    7.4860    0.0000 C   0  0  0  0  0  0  0  0  0  0  0  0
   -4.7385    7.3977    0.0000 C   0  0  0  0  0  0  0  0  0  0  0  0
   -5.5637    8.6503    0.0000 N   0  0  0  0  0  0  0  0  0  0  0  0
   -5.5691    6.1487    0.0000 O   0  0  0  0  0  0  0  0  0  0  0  0
   -1.4538    4.9205    0.0000 C   0  0  0  0  0  0  0  0  0  0  0  0
   -2.7069    5.7450    0.0000 O   0  0  0  0  0  0  0  0  0  0  0  0
   -1.5524    3.4238    0.0000 N   0  0  0  0  0  0  0  0  0  0  0  0
   -1.2054    1.9645    0.0000 C   0  0  0  0  0  0  0  0  0  0  0  0
   -0.4436    0.6723    0.0000 C   0  0  0  0  0  0  0  0  0  0  0  0
    0.6651   -0.3380    0.0000 C   0  0  0  0  0  0  0  0  0  0  0  0
    2.0224   -0.9766    0.0000 C   0  0  0  0  0  0  0  0  0  0  0  0
    3.5076   -1.1867    0.0000 C   0  0  0  0  0  0  0  0  0  0  0  0
   -0.7795    0.5262    0.0000 C   0  0  0  0  0  0  0  0  0  0  0  0
   -0.6336   -0.9667    0.0000 C   0  0  0  0  0  0  0  0  0  0  0  0
   -0.7728   -2.4602    0.0000 C   0  0  0  0  0  0  0  0  0  0  0  0
   -1.1921   -3.9004    0.0000 C   0  0  0  0  0  0  0  0  0  0  0  0
   -1.8957    3.2962    0.0000 C   0  0  0  0  0  0  0  0  0  0  0  0
   -0.6357    4.1100    0.0000 O   0  0  0  0  0  0  0  0  0  0  0  0
   -2.8256    4.4732    0.0000 N   0  0  0  0  0  0  0  0  0  0  0  0
   -3.9614    5.4529    0.0000 C   0  0  0  0  0  0  0  0  0  0  0  0
   -3.8697    6.9501    0.0000 C   0  0  0  0  0  0  0  0  0  0  0  0
   -5.1204    7.7781    0.0000 C   0  0  0  0  0  0  0  0  0  0  0  0
   -5.0286    9.2753    0.0000 C   0  0  0  0  0  0  0  0  0  0  0  0
   -6.2794   10.1034    0.0000 N   0  0  0  0  0  0  0  0  0  0  0  0
   -6.1876   11.6006    0.0000 C   0  0  0  0  0  0  0  0  0  0  0  0
   -7.2008   12.7067    0.0000 N   0  0  0  0  0  0  0  0  0  0  0  0
   -4.8451   12.2697    0.0000 N   0  0  0  0  0  0  0  0  0  0  0  0
   -5.2622    6.2000    0.0000 C   0  0  0  0  0  0  0  0  0  0  0  0
   -5.3561    7.6970    0.0000 O   0  0  0  0  0  0  0  0  0  0  0  0
   -6.6808    6.6874    0.0000 N   0  0  0  0  0  0  0  0  0  0  0  0
   -8.1660    6.8975    0.0000 C   0  0  0  0  0  0  0  0  0  0  0  0
   -8.8982    8.2066    0.0000 C   0  0  0  0  0  0  0  0  0  0  0  0
   -8.1306    9.4953    0.0000 C   0  0  0  0  0  0  0  0  0  0  0  0
   -8.8628   10.8045    0.0000 C   0  0  0  0  0  0  0  0  0  0  0  0
   -8.0952   12.0932    0.0000 N   0  0  0  0  0  0  0  0  0  0  0  0
   -8.8275   13.4023    0.0000 C   0  0  0  0  0  0  0  0  0  0  0  0
   -8.0599   14.6910    0.0000 N   0  0  0  0  0  0  0  0  0  0  0  0
  -10.3273   13.4227    0.0000 N   0  0  0  0  0  0  0  0  0  0  0  0
   -9.6641    6.8227    0.0000 C   0  0  0  0  0  0  0  0  0  0  0  0
  -10.0602    8.2695    0.0000 O   0  0  0  0  0  0  0  0  0  0  0  0
  -11.1210    6.4658    0.0000 N   0  0  0  0  0  0  0  0  0  0  0  0
  -12.4841    5.8396    0.0000 C   0  0  0  0  0  0  0  0  0  0  0  0
  -13.8078    6.5451    0.0000 C   0  0  0  0  0  0  0  0  0  0  0  0
  -13.8588    8.0442    0.0000 C   0  0  0  0  0  0  0  0  0  0  0  0
  -15.1826    8.7496    0.0000 C   0  0  0  0  0  0  0  0  0  0  0  0
  -15.2335   10.2487    0.0000 N   0  0  0  0  0  0  0  0  0  0  0  0
  -16.5573   10.9542    0.0000 C   0  0  0  0  0  0  0  0  0  0  0  0
  -16.6083   12.4533    0.0000 N   0  0  0  0  0  0  0  0  0  0  0  0
  -17.8301   10.1605    0.0000 N   0  0  0  0  0  0  0  0  0  0  0  0
  -13.7040    4.9668    0.0000 C   0  0  0  0  0  0  0  0  0  0  0  0
  -14.8194    5.9697    0.0000 O   0  0  0  0  0  0  0  0  0  0  0  0
  -14.7366    3.8789    0.0000 N   0  0  0  0  0  0  0  0  0  0  0  0
  -15.5447    2.6152    0.0000 C   0  0  0  0  0  0  0  0  0  0  0  0
  -17.0398    2.4929    0.0000 C   0  0  0  0  0  0  0  0  0  0  0  0
  -17.8931    3.7265    0.0000 C   0  0  0  0  0  0  0  0  0  0  0  0
  -17.3967    5.1420    0.0000 C   0  0  0  0  0  0  0  0  0  0  0  0
  -18.5895    6.0515    0.0000 N   0  0  0  0  0  0  0  0  0  0  0  0
  -19.8231    5.1981    0.0000 C   0  0  0  0  0  0  0  0  0  0  0  0
  -21.2827    5.5439    0.0000 C   0  0  0  0  0  0  0  0  0  0  0  0
  -22.3120    4.4526    0.0000 C   0  0  0  0  0  0  0  0  0  0  0  0
  -21.8816    3.0157    0.0000 C   0  0  0  0  0  0  0  0  0  0  0  0
  -20.4219    2.6700    0.0000 C   0  0  0  0  0  0  0  0  0  0  0  0
  -19.3927    3.7612    0.0000 C   0  0  0  0  0  0  0  0  0  0  0  0
  -16.0991    1.2214    0.0000 C   0  0  0  0  0  0  0  0  0  0  0  0
  -17.5797    1.4620    0.0000 O   0  0  0  0  0  0  0  0  0  0  0  0
  -16.3797   -0.2522    0.0000 N   0  0  0  0  0  0  0  0  0  0  0  0
  -16.3763   -1.7522    0.0000 C   0  0  0  0  0  0  0  0  0  0  0  0
  -17.5679   -2.6633    0.0000 C   0  0  0  0  0  0  0  0  0  0  0  0
  -18.9527   -2.0869    0.0000 C   0  0  0  0  0  0  0  0  0  0  0  0
  -20.1443   -2.9980    0.0000 C   0  0  0  0  0  0  0  0  0  0  0  0
  -21.5291   -2.4216    0.0000 N   0  0  0  0  0  0  0  0  0  0  0  0
  -22.7207   -3.3327    0.0000 C   0  0  0  0  0  0  0  0  0  0  0  0
  -24.1056   -2.7563    0.0000 N   0  0  0  0  0  0  0  0  0  0  0  0
  -22.5275   -4.8202    0.0000 N   0  0  0  0  0  0  0  0  0  0  0  0
  -16.0891   -3.2244    0.0000 C   0  0  0  0  0  0  0  0  0  0  0  0
  -17.4647   -3.8224    0.0000 O   0  0  0  0  0  0  0  0  0  0  0  0
  -15.5285   -4.6157    0.0000 N   0  0  0  0  0  0  0  0  0  0  0  0
  -14.7147   -5.8758    0.0000 C   0  0  0  0  0  0  0  0  0  0  0  0
  -15.2245   -7.2865    0.0000 C   0  0  0  0  0  0  0  0  0  0  0  0
  -16.7011   -7.5503    0.0000 C   0  0  0  0  0  0  0  0  0  0  0  0
  -17.2110   -8.9609    0.0000 C   0  0  0  0  0  0  0  0  0  0  0  0
  -18.6876   -9.2247    0.0000 O   0  0  0  0  0  0  0  0  0  0  0  0
  -16.2442  -10.1078    0.0000 O   0  0  0  0  0  0  0  0  0  0  0  0
  -13.6771   -6.9590    0.0000 C   0  0  0  0  0  0  0  0  0  0  0  0
  -14.5111   -8.2058    0.0000 O   0  0  0  0  0  0  0  0  0  0  0  0
  -12.4533   -7.8264    0.0000 N   0  0  0  0  0  0  0  0  0  0  0  0
  -11.0874   -8.4464    0.0000 C   0  0  0  0  0  0  0  0  0  0  0  0
   -9.6289   -8.7968    0.0000 C   0  0  0  0  0  0  0  0  0  0  0  0
   -8.1304   -8.8648    0.0000 C   0  0  0  0  0  0  0  0  0  0  0  0
   -6.6462   -8.6479    0.0000 C   0  0  0  0  0  0  0  0  0  0  0  0
   -5.2298   -8.1541    0.0000 C   0  0  0  0  0  0  0  0  0  0  0  0
   -3.9325   -7.4012    0.0000 C   0  0  0  0  0  0  0  0  0  0  0  0
   -2.8011   -6.4164    0.0000 C   0  0  0  0  0  0  0  0  0  0  0  0
   -1.8765   -5.2352    0.0000 C   0  0  0  0  0  0  0  0  0  0  0  0
  -12.2495   -9.3949    0.0000 C   0  0  0  0  0  0  0  0  0  0  0  0
  -10.7537   -9.9088    0.0000 C   0  0  0  0  0  0  0  0  0  0  0  0
   -9.4699  -10.6846    0.0000 O   0  0  0  0  0  0  0  0  0  0  0  0
  -11.8532  -10.9290    0.0000 N   0  0  0  0  0  0  0  0  0  0  0  0
  -11.5195  -12.3914    0.0000 C   0  0  0  0  0  0  0  0  0  0  0  0
  -10.7057  -13.6515    0.0000 C   0  0  0  0  0  0  0  0  0  0  0  0
  -11.3900  -14.9863    0.0000 C   0  0  0  0  0  0  0  0  0  0  0  0
  -10.5762  -16.2463    0.0000 C   0  0  0  0  0  0  0  0  0  0  0  0
  -11.0927  -17.6546    0.0000 N   0  0  0  0  0  0  0  0  0  0  0  0
   -9.0781  -16.1716    0.0000 O   0  0  0  0  0  0  0  0  0  0  0  0
  -12.6191  -13.4117    0.0000 C   0  0  0  0  0  0  0  0  0  0  0  0
  -14.0524  -12.9695    0.0000 O   0  0  0  0  0  0  0  0  0  0  0  0
  -12.2853  -14.8741    0.0000 N   0  0  0  0  0  0  0  0  0  0  0  0
  -13.3849  -15.8943    0.0000 C   0  0  0  0  0  0  0  0  0  0  0  0
  -14.7671  -16.4770    0.0000 C   0  0  0  0  0  0  0  0  0  0  0  0
  -15.9628  -15.5712    0.0000 C   0  0  0  0  0  0  0  0  0  0  0  0
  -17.3450  -16.1539    0.0000 C   0  0  0  0  0  0  0  0  0  0  0  0
  -18.5407  -15.2482    0.0000 N   0  0  0  0  0  0  0  0  0  0  0  0
  -19.9229  -15.8308    0.0000 C   0  0  0  0  0  0  0  0  0  0  0  0
  -21.1186  -14.9251    0.0000 N   0  0  0  0  0  0  0  0  0  0  0  0
  -20.1095  -17.3191    0.0000 N   0  0  0  0  0  0  0  0  0  0  0  0
  -13.0511  -17.3567    0.0000 C   0  0  0  0  0  0  0  0  0  0  0  0
  -14.0182  -18.5034    0.0000 O   0  0  0  0  0  0  0  0  0  0  0  0
  -11.6824  -17.9703    0.0000 O   0  0  0  0  0  0  0  0  0  0  0  0
   26.8688   -1.9626    0.0000 H   0  0  0  0  0  0  0  0  0  0  0  0
   26.5326   -6.4425    0.0000 H   0  0  0  0  0  0  0  0  0  0  0  0
   28.9403   -8.2322    0.0000 H   0  0  0  0  0  0  0  0  0  0  0  0
   29.2668   -2.2747    0.0000 H   0  0  0  0  0  0  0  0  0  0  0  0
   36.3706   -1.3530    0.0000 H   0  0  0  0  0  0  0  0  0  0  0  0
   36.8574   -6.5263    0.0000 H   0  0  0  0  0  0  0  0  0  0  0  0
   33.8706   -6.8073    0.0000 H   0  0  0  0  0  0  0  0  0  0  0  0
   38.9758   -5.0222    0.0000 H   0  0  0  0  0  0  0  0  0  0  0  0
   29.1470   -4.6423    0.0000 H   0  0  0  0  0  0  0  0  0  0  0  0
   27.4042   -2.0131    0.0000 H   0  0  0  0  0  0  0  0  0  0  0  0
   31.6470    0.8121    0.0000 H   0  0  0  0  0  0  0  0  0  0  0  0
   29.2852    1.8946    0.0000 H   0  0  0  0  0  0  0  0  0  0  0  0
   24.4710   -1.6729    0.0000 H   0  0  0  0  0  0  0  0  0  0  0  0
   23.7463   -5.0106    0.0000 H   0  0  0  0  0  0  0  0  0  0  0  0
   21.8308   -4.7882    0.0000 H   0  0  0  0  0  0  0  0  0  0  0  0
   22.8075   -1.8330    0.0000 H   0  0  0  0  0  0  0  0  0  0  0  0
   20.8920   -1.6105    0.0000 H   0  0  0  0  0  0  0  0  0  0  0  0
   19.3095   -1.0735    0.0000 H   0  0  0  0  0  0  0  0  0  0  0  0
   17.4126   -1.6993    0.0000 H   0  0  0  0  0  0  0  0  0  0  0  0
   17.3928   -5.3218    0.0000 H   0  0  0  0  0  0  0  0  0  0  0  0
   20.3691   -6.2997    0.0000 H   0  0  0  0  0  0  0  0  0  0  0  0
   21.0316   -5.4669    0.0000 H   0  0  0  0  0  0  0  0  0  0  0  0
   21.4591   -3.7277    0.0000 H   0  0  0  0  0  0  0  0  0  0  0  0
   20.1429   -2.8285    0.0000 H   0  0  0  0  0  0  0  0  0  0  0  0
   16.1092   -0.6533    0.0000 H   0  0  0  0  0  0  0  0  0  0  0  0
   14.1127   -0.5926    0.0000 H   0  0  0  0  0  0  0  0  0  0  0  0
   13.9333   -4.9997    0.0000 H   0  0  0  0  0  0  0  0  0  0  0  0
   12.8112   -3.8121    0.0000 H   0  0  0  0  0  0  0  0  0  0  0  0
   17.2213   -3.8827    0.0000 H   0  0  0  0  0  0  0  0  0  0  0  0
   16.2524   -2.5672    0.0000 H   0  0  0  0  0  0  0  0  0  0  0  0
   15.8979   -6.9204    0.0000 H   0  0  0  0  0  0  0  0  0  0  0  0
   14.5955   -5.7006    0.0000 H   0  0  0  0  0  0  0  0  0  0  0  0
   18.8154   -5.1238    0.0000 H   0  0  0  0  0  0  0  0  0  0  0  0
   19.6396   -9.2073    0.0000 H   0  0  0  0  0  0  0  0  0  0  0  0
   20.5003   -6.8584    0.0000 H   0  0  0  0  0  0  0  0  0  0  0  0
   17.1120   -9.8083    0.0000 H   0  0  0  0  0  0  0  0  0  0  0  0
   15.3276   -7.9199    0.0000 H   0  0  0  0  0  0  0  0  0  0  0  0
   13.2456    0.8360    0.0000 H   0  0  0  0  0  0  0  0  0  0  0  0
   11.3902    1.5759    0.0000 H   0  0  0  0  0  0  0  0  0  0  0  0
    9.8728   -2.5960    0.0000 H   0  0  0  0  0  0  0  0  0  0  0  0
    9.1077   -0.8259    0.0000 H   0  0  0  0  0  0  0  0  0  0  0  0
   13.1861   -2.5790    0.0000 H   0  0  0  0  0  0  0  0  0  0  0  0
   12.7255   -1.0114    0.0000 H   0  0  0  0  0  0  0  0  0  0  0  0
   12.6066   -6.0247    0.0000 H   0  0  0  0  0  0  0  0  0  0  0  0
   14.2900   -4.3231    0.0000 H   0  0  0  0  0  0  0  0  0  0  0  0
   11.1263    3.0427    0.0000 H   0  0  0  0  0  0  0  0  0  0  0  0
    9.6618    1.9955    0.0000 H   0  0  0  0  0  0  0  0  0  0  0  0
    8.8953    0.7403    0.0000 H   0  0  0  0  0  0  0  0  0  0  0  0
    8.6797   -0.0779    0.0000 H   0  0  0  0  0  0  0  0  0  0  0  0
    8.0843   -0.6036    0.0000 H   0  0  0  0  0  0  0  0  0  0  0  0
    7.6419   -1.0216    0.0000 H   0  0  0  0  0  0  0  0  0  0  0  0
    6.3853   -1.7858    0.0000 H   0  0  0  0  0  0  0  0  0  0  0  0
    5.4439   -2.3790    0.0000 H   0  0  0  0  0  0  0  0  0  0  0  0
   11.1654    3.6360    0.0000 H   0  0  0  0  0  0  0  0  0  0  0  0
   10.7764    5.3775    0.0000 H   0  0  0  0  0  0  0  0  0  0  0  0
    9.1581    5.6024    0.0000 H   0  0  0  0  0  0  0  0  0  0  0  0
    9.0893    7.1624    0.0000 H   0  0  0  0  0  0  0  0  0  0  0  0
    8.3374    7.7685    0.0000 H   0  0  0  0  0  0  0  0  0  0  0  0
    6.6468   10.4748    0.0000 H   0  0  0  0  0  0  0  0  0  0  0  0
    5.6397    9.3942    0.0000 H   0  0  0  0  0  0  0  0  0  0  0  0
   10.0031    9.5838    0.0000 H   0  0  0  0  0  0  0  0  0  0  0  0
    8.9548    8.1398    0.0000 H   0  0  0  0  0  0  0  0  0  0  0  0
    8.4764   12.5245    0.0000 H   0  0  0  0  0  0  0  0  0  0  0  0
    7.2599   11.2190    0.0000 H   0  0  0  0  0  0  0  0  0  0  0  0
   11.3129   10.6217    0.0000 H   0  0  0  0  0  0  0  0  0  0  0  0
   12.0541   15.0602    0.0000 H   0  0  0  0  0  0  0  0  0  0  0  0
   12.9648   12.6270    0.0000 H   0  0  0  0  0  0  0  0  0  0  0  0
    9.4915   15.4882    0.0000 H   0  0  0  0  0  0  0  0  0  0  0  0
    7.8396   13.4829    0.0000 H   0  0  0  0  0  0  0  0  0  0  0  0
    4.3771   10.3130    0.0000 H   0  0  0  0  0  0  0  0  0  0  0  0
    3.4344   10.1030    0.0000 H   0  0  0  0  0  0  0  0  0  0  0  0
    0.2645   10.4686    0.0000 H   0  0  0  0  0  0  0  0  0  0  0  0
    0.4815    9.0075    0.0000 H   0  0  0  0  0  0  0  0  0  0  0  0
    3.0538   12.5371    0.0000 H   0  0  0  0  0  0  0  0  0  0  0  0
    3.5291   10.8172    0.0000 H   0  0  0  0  0  0  0  0  0  0  0  0
   -0.1972   13.1770    0.0000 H   0  0  0  0  0  0  0  0  0  0  0  0
    0.0649   11.4120    0.0000 H   0  0  0  0  0  0  0  0  0  0  0  0
    3.0589   14.2083    0.0000 H   0  0  0  0  0  0  0  0  0  0  0  0
    0.0509   17.5552    0.0000 H   0  0  0  0  0  0  0  0  0  0  0  0
    2.5211   16.7501    0.0000 H   0  0  0  0  0  0  0  0  0  0  0  0
   -1.8815   15.8185    0.0000 H   0  0  0  0  0  0  0  0  0  0  0  0
   -1.3436   13.2767    0.0000 H   0  0  0  0  0  0  0  0  0  0  0  0
   -1.0241    8.5932    0.0000 H   0  0  0  0  0  0  0  0  0  0  0  0
   -1.4477    7.7253    0.0000 H   0  0  0  0  0  0  0  0  0  0  0  0
   -3.8958    5.9891    0.0000 H   0  0  0  0  0  0  0  0  0  0  0  0
   -2.6150    4.7467    0.0000 H   0  0  0  0  0  0  0  0  0  0  0  0
   -3.2246    8.9860    0.0000 H   0  0  0  0  0  0  0  0  0  0  0  0
   -1.9470    8.2446    0.0000 H   0  0  0  0  0  0  0  0  0  0  0  0
   -7.0379    8.9270    0.0000 H   0  0  0  0  0  0  0  0  0  0  0  0
   -5.4168   10.1431    0.0000 H   0  0  0  0  0  0  0  0  0  0  0  0
   -3.0471    3.2981    0.0000 H   0  0  0  0  0  0  0  0  0  0  0  0
   -0.7312   -0.7999    0.0000 H   0  0  0  0  0  0  0  0  0  0  0  0
   -1.9348    0.5094    0.0000 H   0  0  0  0  0  0  0  0  0  0  0  0
    0.8243   -1.8295    0.0000 H   0  0  0  0  0  0  0  0  0  0  0  0
   -0.4069   -1.3871    0.0000 H   0  0  0  0  0  0  0  0  0  0  0  0
    2.4417   -2.4168    0.0000 H   0  0  0  0  0  0  0  0  0  0  0  0
    1.3072   -2.2951    0.0000 H   0  0  0  0  0  0  0  0  0  0  0  0
    3.5212   -2.6866    0.0000 H   0  0  0  0  0  0  0  0  0  0  0  0
    0.3201    1.5464    0.0000 H   0  0  0  0  0  0  0  0  0  0  0  0
    0.5476   -0.1730    0.0000 H   0  0  0  0  0  0  0  0  0  0  0  0
    0.8392   -0.6820    0.0000 H   0  0  0  0  0  0  0  0  0  0  0  0
    0.5372   -1.9044    0.0000 H   0  0  0  0  0  0  0  0  0  0  0  0
    0.7272   -2.4593    0.0000 H   0  0  0  0  0  0  0  0  0  0  0  0
    0.3314   -3.4755    0.0000 H   0  0  0  0  0  0  0  0  0  0  0  0
    0.2017   -4.4548    0.0000 H   0  0  0  0  0  0  0  0  0  0  0  0
   -1.8769    5.6350    0.0000 H   0  0  0  0  0  0  0  0  0  0  0  0
   -2.7613    6.3527    0.0000 H   0  0  0  0  0  0  0  0  0  0  0  0
   -3.2714    8.3256    0.0000 H   0  0  0  0  0  0  0  0  0  0  0  0
   -2.4647    6.4246    0.0000 H   0  0  0  0  0  0  0  0  0  0  0  0
   -6.5789    8.1285    0.0000 H   0  0  0  0  0  0  0  0  0  0  0  0
   -6.1720    6.7085    0.0000 H   0  0  0  0  0  0  0  0  0  0  0  0
   -4.2671   10.5677    0.0000 H   0  0  0  0  0  0  0  0  0  0  0  0
   -3.5287    9.2883    0.0000 H   0  0  0  0  0  0  0  0  0  0  0  0
   -7.7439    9.7790    0.0000 H   0  0  0  0  0  0  0  0  0  0  0  0
   -7.3466   13.9258    0.0000 H   0  0  0  0  0  0  0  0  0  0  0  0
   -8.9630   12.1700    0.0000 H   0  0  0  0  0  0  0  0  0  0  0  0
   -4.7533   13.7669    0.0000 H   0  0  0  0  0  0  0  0  0  0  0  0
   -3.5944   11.4417    0.0000 H   0  0  0  0  0  0  0  0  0  0  0  0
   -6.5108    8.1777    0.0000 H   0  0  0  0  0  0  0  0  0  0  0  0
   -7.4753    8.2290    0.0000 H   0  0  0  0  0  0  0  0  0  0  0  0
  -10.0341    9.1864    0.0000 H   0  0  0  0  0  0  0  0  0  0  0  0
  -10.2553    7.5676    0.0000 H   0  0  0  0  0  0  0  0  0  0  0  0
   -7.2326   10.6968    0.0000 H   0  0  0  0  0  0  0  0  0  0  0  0
   -6.9948    8.5156    0.0000 H   0  0  0  0  0  0  0  0  0  0  0  0
   -9.9987   11.7842    0.0000 H   0  0  0  0  0  0  0  0  0  0  0  0
  -10.1319   10.0047    0.0000 H   0  0  0  0  0  0  0  0  0  0  0  0
   -6.6350   12.4363    0.0000 H   0  0  0  0  0  0  0  0  0  0  0  0
   -8.7921   16.0001    0.0000 H   0  0  0  0  0  0  0  0  0  0  0  0
   -6.5600   14.6706    0.0000 H   0  0  0  0  0  0  0  0  0  0  0  0
  -11.0596   14.7318    0.0000 H   0  0  0  0  0  0  0  0  0  0  0  0
  -11.0950   12.1340    0.0000 H   0  0  0  0  0  0  0  0  0  0  0  0
  -11.4385    7.9318    0.0000 H   0  0  0  0  0  0  0  0  0  0  0  0
  -12.2574    7.3224    0.0000 H   0  0  0  0  0  0  0  0  0  0  0  0
  -15.2930    6.7552    0.0000 H   0  0  0  0  0  0  0  0  0  0  0  0
  -14.6040    5.2738    0.0000 H   0  0  0  0  0  0  0  0  0  0  0  0
  -13.3940    9.4703    0.0000 H   0  0  0  0  0  0  0  0  0  0  0  0
  -12.3669    8.1997    0.0000 H   0  0  0  0  0  0  0  0  0  0  0  0
  -16.6678    8.9597    0.0000 H   0  0  0  0  0  0  0  0  0  0  0  0
  -15.8178    7.3908    0.0000 H   0  0  0  0  0  0  0  0  0  0  0  0
  -13.9607   11.0425    0.0000 H   0  0  0  0  0  0  0  0  0  0  0  0
  -17.9321   13.1587    0.0000 H   0  0  0  0  0  0  0  0  0  0  0  0
  -15.3355   13.2470    0.0000 H   0  0  0  0  0  0  0  0  0  0  0  0
  -19.1539   10.8659    0.0000 H   0  0  0  0  0  0  0  0  0  0  0  0
  -17.7792    8.6613    0.0000 H   0  0  0  0  0  0  0  0  0  0  0  0
  -15.7963    4.9405    0.0000 H   0  0  0  0  0  0  0  0  0  0  0  0
  -16.3182    3.9004    0.0000 H   0  0  0  0  0  0  0  0  0  0  0  0
  -18.4690    2.0375    0.0000 H   0  0  0  0  0  0  0  0  0  0  0  0
  -17.0222    0.9930    0.0000 H   0  0  0  0  0  0  0  0  0  0  0  0
  -16.0230    5.7443    0.0000 H   0  0  0  0  0  0  0  0  0  0  0  0
  -18.5548    7.5511    0.0000 H   0  0  0  0  0  0  0  0  0  0  0  0
  -21.7131    6.9808    0.0000 H   0  0  0  0  0  0  0  0  0  0  0  0
  -23.7716    4.7984    0.0000 H   0  0  0  0  0  0  0  0  0  0  0  0
  -22.9108    1.9245    0.0000 H   0  0  0  0  0  0  0  0  0  0  0  0
  -19.9915    1.2331    0.0000 H   0  0  0  0  0  0  0  0  0  0  0  0
  -17.8451    0.0681    0.0000 H   0  0  0  0  0  0  0  0  0  0  0  0
  -17.6309   -0.9300    0.0000 H   0  0  0  0  0  0  0  0  0  0  0  0
  -18.3760   -3.9270    0.0000 H   0  0  0  0  0  0  0  0  0  0  0  0
  -16.7422   -3.9156    0.0000 H   0  0  0  0  0  0  0  0  0  0  0  0
  -20.0569   -1.0716    0.0000 H   0  0  0  0  0  0  0  0  0  0  0  0
  -18.4744   -0.6652    0.0000 H   0  0  0  0  0  0  0  0  0  0  0  0
  -20.9524   -4.2617    0.0000 H   0  0  0  0  0  0  0  0  0  0  0  0
  -19.1721   -4.1403    0.0000 H   0  0  0  0  0  0  0  0  0  0  0  0
  -21.7224   -0.9341    0.0000 H   0  0  0  0  0  0  0  0  0  0  0  0
  -25.2972   -3.6674    0.0000 H   0  0  0  0  0  0  0  0  0  0  0  0
  -24.2988   -1.2688    0.0000 H   0  0  0  0  0  0  0  0  0  0  0  0
  -23.7191   -5.7313    0.0000 H   0  0  0  0  0  0  0  0  0  0  0  0
  -21.1426   -5.3966    0.0000 H   0  0  0  0  0  0  0  0  0  0  0  0
  -16.9344   -5.1386    0.0000 H   0  0  0  0  0  0  0  0  0  0  0  0
  -16.2146   -5.8624    0.0000 H   0  0  0  0  0  0  0  0  0  0  0  0
  -15.4040   -8.7757    0.0000 H   0  0  0  0  0  0  0  0  0  0  0  0
  -13.8528   -7.8935    0.0000 H   0  0  0  0  0  0  0  0  0  0  0  0
  -18.1789   -7.2931    0.0000 H   0  0  0  0  0  0  0  0  0  0  0  0
  -17.0674   -6.0957    0.0000 H   0  0  0  0  0  0  0  0  0  0  0  0
  -13.3533   -9.0263    0.0000 H   0  0  0  0  0  0  0  0  0  0  0  0
   -9.0244  -10.1696    0.0000 H   0  0  0  0  0  0  0  0  0  0  0  0
  -10.2834  -10.1465    0.0000 H   0  0  0  0  0  0  0  0  0  0  0  0
   -7.4338  -10.1932    0.0000 H   0  0  0  0  0  0  0  0  0  0  0  0
   -8.5176  -10.3139    0.0000 H   0  0  0  0  0  0  0  0  0  0  0  0
   -5.7107   -9.8205    0.0000 H   0  0  0  0  0  0  0  0  0  0  0  0
   -6.9337  -10.1201    0.0000 H   0  0  0  0  0  0  0  0  0  0  0  0
   -4.0894   -9.1285    0.0000 H   0  0  0  0  0  0  0  0  0  0  0  0
   -5.2335   -9.6541    0.0000 H   0  0  0  0  0  0  0  0  0  0  0  0
   -2.6282   -8.1421    0.0000 H   0  0  0  0  0  0  0  0  0  0  0  0
   -3.6522   -8.8748    0.0000 H   0  0  0  0  0  0  0  0  0  0  0  0
   -1.3322   -6.7203    0.0000 H   0  0  0  0  0  0  0  0  0  0  0  0
   -2.2470   -7.8103    0.0000 H   0  0  0  0  0  0  0  0  0  0  0  0
   -0.6128   -6.0433    0.0000 H   0  0  0  0  0  0  0  0  0  0  0  0
  -12.3746  -10.8896    0.0000 H   0  0  0  0  0  0  0  0  0  0  0  0
  -13.6659   -9.8887    0.0000 H   0  0  0  0  0  0  0  0  0  0  0  0
  -13.2768   -8.3018    0.0000 H   0  0  0  0  0  0  0  0  0  0  0  0
  -13.3298  -10.6649    0.0000 H   0  0  0  0  0  0  0  0  0  0  0  0
  -10.1373  -11.8088    0.0000 H   0  0  0  0  0  0  0  0  0  0  0  0
   -9.5100  -14.5572    0.0000 H   0  0  0  0  0  0  0  0  0  0  0  0
   -9.6061  -12.6312    0.0000 H   0  0  0  0  0  0  0  0  0  0  0  0
  -12.4896  -16.0065    0.0000 H   0  0  0  0  0  0  0  0  0  0  0  0
  -12.8710  -14.7481    0.0000 H   0  0  0  0  0  0  0  0  0  0  0  0
  -10.4467  -18.8412    0.0000 H   0  0  0  0  0  0  0  0  0  0  0  0
  -12.7089  -18.0590    0.0000 H   0  0  0  0  0  0  0  0  0  0  0  0
  -11.0015  -15.6499    0.0000 H   0  0  0  0  0  0  0  0  0  0  0  0
  -14.0390  -14.5445    0.0000 H   0  0  0  0  0  0  0  0  0  0  0  0
  -15.7342  -17.6236    0.0000 H   0  0  0  0  0  0  0  0  0  0  0  0
  -14.1130  -17.8268    0.0000 H   0  0  0  0  0  0  0  0  0  0  0  0
  -16.7766  -14.3112    0.0000 H   0  0  0  0  0  0  0  0  0  0  0  0
  -14.9958  -14.4246    0.0000 H   0  0  0  0  0  0  0  0  0  0  0  0
  -18.4446  -17.1741    0.0000 H   0  0  0  0  0  0  0  0  0  0  0  0
  -16.6909  -17.5037    0.0000 H   0  0  0  0  0  0  0  0  0  0  0  0
  -18.3542  -13.7598    0.0000 H   0  0  0  0  0  0  0  0  0  0  0  0
  -22.5009  -15.5077    0.0000 H   0  0  0  0  0  0  0  0  0  0  0  0
  -20.9321  -13.4367    0.0000 H   0  0  0  0  0  0  0  0  0  0  0  0
  -21.4917  -17.9018    0.0000 H   0  0  0  0  0  0  0  0  0  0  0  0
  -18.9138  -18.2249    0.0000 H   0  0  0  0  0  0  0  0  0  0  0  0
  1  2  1  0
  2  3  1  0
  3  4  2  0
  4  5  1  0
  5  6  2  0
  6  7  1  0
  7  8  2  0
  7  9  1  0
  9 10  1  0
 10 11  1  0
 11 12  2  0
  9 13  1  0
 13 14  1  0
 14 15  2  0
 15 16  1  0
 16 17  2  0
 17 18  1  0
 16 19  1  0
 14 20  1  0
 20 21  1  0
 21 22  2  0
 22 23  1  0
 23 24  2  0
 24 25  1  0
 25 26  2  0
 25 27  1  0
  1 28  2  0
  1 29  1  0
 29 30  1  0
 30 31  1  0
 31 32  1  0
 32 33  2  0
 32 34  1  0
 34 35  1  0
 35 36  1  0
 36 37  1  0
 36 38  1  0
 35 39  1  0
 39 40  2  0
 39 41  1  0
 41 42  1  0
 42 43  1  0
 43 44  1  0
 44 45  1  0
 45 46  1  0
 46 47  1  0
 47 48  2  3
 47 49  1  0
 42 50  1  0
 50 51  2  0
 50 52  1  0
 52 53  1  0
 53 54  1  0
 54 55  1  0
 55 56  1  0
 56 57  1  0
 56 58  2  0
 53 59  1  0
 59 60  2  0
 59 61  1  0
 62 61  1  1
 62 63  1  0
 63 64  1  0
 64 65  1  0
 65 66  1  0
 62 67  1  0
 62 68  1  0
 68 69  2  0
 68 70  1  0
 70 71  1  0
 71 72  1  0
 72 73  1  0
 73 74  1  0
 74 75  1  0
 75 76  1  0
 76 77  2  3
 76 78  1  0
 71 79  1  0
 79 80  2  0
 79 81  1  0
 81 82  1  0
 82 83  1  0
 83 84  1  0
 84 85  1  0
 85 86  1  0
 86 87  1  0
 87 88  2  3
 87 89  1  0
 82 90  1  0
 90 91  2  0
 90 92  1  0
 92 93  1  0
 93 94  1  0
 94 95  1  0
 95 96  1  0
 96 97  1  0
 96 98  2  0
 93 99  1  0
 99100  2  0
 99101  1  0
101102  1  0
102103  1  0
103104  1  0
104105  1  0
105106  1  0
102107  1  0
107108  1  0
108109  1  0
109110  1  0
102111  1  0
111112  2  0
111113  1  0
113114  1  0
114115  1  0
115116  1  0
116117  1  0
117118  1  0
118119  1  0
119120  2  3
119121  1  0
114122  1  0
122123  2  0
122124  1  0
124125  1  0
125126  1  0
126127  1  0
127128  1  0
128129  1  0
129130  1  0
130131  2  3
130132  1  0
125133  1  0
133134  2  0
133135  1  0
135136  1  0
136137  1  0
137138  1  0
138139  1  0
139140  1  0
140141  1  0
141142  2  3
141143  1  0
136144  1  0
144145  2  0
144146  1  0
146147  1  0
147148  1  0
148149  1  0
149150  2  0
150151  1  0
151152  1  0
152153  2  0
153154  1  0
154155  2  0
155156  1  0
156157  2  0
147158  1  0
158159  2  0
158160  1  0
160161  1  0
161162  1  0
162163  1  0
163164  1  0
164165  1  0
165166  1  0
166167  2  3
166168  1  0
161169  1  0
169170  2  0
169171  1  0
171172  1  0
172173  1  0
173174  1  0
174175  1  0
175176  2  0
175177  1  0
172178  1  0
178179  2  0
178180  1  0
180181  1  0
181182  1  0
182183  1  0
183184  1  0
184185  1  0
185186  1  0
186187  1  0
187188  1  0
181189  1  0
181190  1  1
190191  2  0
190192  1  0
192193  1  0
193194  1  0
194195  1  0
195196  1  0
196197  1  0
196198  2  0
193199  1  0
199200  2  0
199201  1  0
201202  1  0
202203  1  0
203204  1  0
204205  1  0
205206  1  0
206207  1  0
207208  2  3
207209  1  0
202210  1  0
210211  2  0
210212  1  0
  8  3  1  0
157149  1  0
 11  6  1  0
157152  1  0
 18 13  2  0
 66106  2  0
 22  9  1  0
110188  2  0
 26 21  1  0
  2213  1  0
  4214  1  0
  5215  1  0
  8216  1  0
 15217  1  0
 17218  1  0
 18219  1  0
 19220  1  0
 23221  1  0
 24222  1  0
 26223  1  0
 27224  1  0
 29225  1  0
 30226  1  0
 30227  1  0
 31228  1  0
 31229  1  0
 34230  1  0
 35231  1  1
 36232  1  6
 37233  1  0
 38234  1  0
 38235  1  0
 38236  1  0
 41237  1  0
 42238  1  1
 43239  1  0
 43240  1  0
 44241  1  0
 44242  1  0
 45243  1  0
 45244  1  0
 46245  1  0
 48246  1  0
 48247  1  0
 49248  1  0
 49249  1  0
 52250  1  0
 53251  1  1
 54252  1  0
 54253  1  0
 55254  1  0
 55255  1  0
 57256  1  0
 57257  1  0
 61258  1  0
 63259  1  0
 63260  1  0
 64261  1  0
 64262  1  0
 65263  1  0
 65264  1  0
 66265  1  0
 67266  1  0
 67267  1  0
 67268  1  0
 70269  1  0
 71270  1  6
 72271  1  0
 72272  1  0
 73273  1  0
 73274  1  0
 74275  1  0
 74276  1  0
 75277  1  0
 77278  1  0
 77279  1  0
 78280  1  0
 78281  1  0
 81282  1  0
 82283  1  6
 83284  1  0
 83285  1  0
 84286  1  0
 84287  1  0
 85288  1  0
 85289  1  0
 86290  1  0
 88291  1  0
 88292  1  0
 89293  1  0
 89294  1  0
 92295  1  0
 93296  1  6
 94297  1  0
 94298  1  0
 95299  1  0
 95300  1  0
 97301  1  0
 97302  1  0
101303  1  0
103304  1  0
103305  1  0
104306  1  0
104307  1  0
105308  1  0
105309  1  0
106310  1  0
107311  1  0
107312  1  0
108313  1  0
108314  1  0
109315  1  0
109316  1  0
110317  1  0
113318  1  0
114319  1  6
115320  1  0
115321  1  0
116322  1  0
116323  1  0
117324  1  0
117325  1  0
118326  1  0
120327  1  0
120328  1  0
121329  1  0
121330  1  0
124331  1  0
125332  1  6
126333  1  0
126334  1  0
127335  1  0
127336  1  0
128337  1  0
128338  1  0
129339  1  0
131340  1  0
131341  1  0
132342  1  0
132343  1  0
135344  1  0
136345  1  6
137346  1  0
137347  1  0
138348  1  0
138349  1  0
139350  1  0
139351  1  0
140352  1  0
142353  1  0
142354  1  0
143355  1  0
143356  1  0
146357  1  0
147358  1  6
148359  1  0
148360  1  0
150361  1  0
151362  1  0
153363  1  0
154364  1  0
155365  1  0
156366  1  0
160367  1  0
161368  1  6
162369  1  0
162370  1  0
163371  1  0
163372  1  0
164373  1  0
164374  1  0
165375  1  0
167376  1  0
167377  1  0
168378  1  0
168379  1  0
171380  1  0
172381  1  6
173382  1  0
173383  1  0
174384  1  0
174385  1  0
180386  1  0
182387  1  0
182388  1  0
183389  1  0
183390  1  0
184391  1  0
184392  1  0
185393  1  0
185394  1  0
186395  1  0
186396  1  0
187397  1  0
187398  1  0
188399  1  0
189400  1  0
189401  1  0
189402  1  0
192403  1  0
193404  1  1
194405  1  0
194406  1  0
195407  1  0
195408  1  0
197409  1  0
197410  1  0
201411  1  0
202412  1  6
203413  1  0
203414  1  0
204415  1  0
204416  1  0
205417  1  0
205418  1  0
206419  1  0
208420  1  0
208421  1  0
209422  1  0
209423  1  0
M  CHG  8  48   1  77   1  88   1 120   1 131   1 142   1 167   1 177  -1
M  CHG  2 208   1 212  -1
M  END
