
     RDKit          2D

333342  0  0  0  0  0  0  0  0999 V2000
   23.7756   -3.5679    0.0000 C   0  0  0  0  0  0  0  0  0  0  0  0
   25.1698   -3.0146    0.0000 N   0  0  0  0  0  0  0  0  0  0  0  0
   26.3461   -3.9453    0.0000 C   0  0  0  0  0  0  0  0  0  0  0  0
   26.1282   -5.4294    0.0000 C   0  0  0  0  0  0  0  0  0  0  0  0
   27.3046   -6.3602    0.0000 C   0  0  0  0  0  0  0  0  0  0  0  0
   28.6988   -5.8068    0.0000 C   0  0  0  0  0  0  0  0  0  0  0  0
   28.9166   -4.3227    0.0000 C   0  0  0  0  0  0  0  0  0  0  0  0
   27.7403   -3.3920    0.0000 C   0  0  0  0  0  0  0  0  0  0  0  0
   30.3954   -4.0713    0.0000 C   0  0  0  0  0  0  0  0  0  0  0  0
   31.0915   -5.4001    0.0000 O   0  0  0  0  0  0  0  0  0  0  0  0
   30.0429   -6.4726    0.0000 C   0  0  0  0  0  0  0  0  0  0  0  0
   30.2943   -7.9514    0.0000 O   0  0  0  0  0  0  0  0  0  0  0  0
   31.8924   -3.9759    0.0000 C   0  0  0  0  0  0  0  0  0  0  0  0
   32.5582   -2.6318    0.0000 C   0  0  0  0  0  0  0  0  0  0  0  0
   34.0552   -2.5364    0.0000 C   0  0  0  0  0  0  0  0  0  0  0  0
   34.8863   -3.7850    0.0000 C   0  0  0  0  0  0  0  0  0  0  0  0
   34.2205   -5.1292    0.0000 C   0  0  0  0  0  0  0  0  0  0  0  0
   32.7235   -5.2246    0.0000 C   0  0  0  0  0  0  0  0  0  0  0  0
   36.3833   -3.6896    0.0000 O   0  0  0  0  0  0  0  0  0  0  0  0
   31.7271   -1.3831    0.0000 O   0  0  0  0  0  0  0  0  0  0  0  0
   30.2301   -1.4785    0.0000 C   0  0  0  0  0  0  0  0  0  0  0  0
   29.5643   -2.8226    0.0000 C   0  0  0  0  0  0  0  0  0  0  0  0
   28.3781   -2.2908    0.0000 C   0  0  0  0  0  0  0  0  0  0  0  0
   27.9348   -1.6248    0.0000 C   0  0  0  0  0  0  0  0  0  0  0  0
   28.2899   -0.9080    0.0000 C   0  0  0  0  0  0  0  0  0  0  0  0
   29.0883   -0.8571    0.0000 C   0  0  0  0  0  0  0  0  0  0  0  0
   27.0709    0.9234    0.0000 O   0  0  0  0  0  0  0  0  0  0  0  0
   23.5577   -5.0520    0.0000 S   0  0  0  0  0  0  0  0  0  0  0  0
   22.5993   -2.6372    0.0000 N   0  0  0  0  0  0  0  0  0  0  0  0
   21.2051   -3.1905    0.0000 C   0  0  0  0  0  0  0  0  0  0  0  0
   20.0288   -2.2598    0.0000 C   0  0  0  0  0  0  0  0  0  0  0  0
   18.6346   -2.8131    0.0000 C   0  0  0  0  0  0  0  0  0  0  0  0
   18.7131   -3.6064    0.0000 O   0  0  0  0  0  0  0  0  0  0  0  0
   17.4583   -1.8824    0.0000 N   0  0  0  0  0  0  0  0  0  0  0  0
   16.0640   -2.4357    0.0000 C   0  0  0  0  0  0  0  0  0  0  0  0
   16.8511   -3.7127    0.0000 C   0  0  0  0  0  0  0  0  0  0  0  0
   18.3505   -3.6695    0.0000 C   0  0  0  0  0  0  0  0  0  0  0  0
   19.1375   -4.9465    0.0000 N   0  0  0  0  0  0  0  0  0  0  0  0
   19.3611   -2.5611    0.0000 O   0  0  0  0  0  0  0  0  0  0  0  0
   14.5647   -2.4789    0.0000 C   0  0  0  0  0  0  0  0  0  0  0  0
   14.1929   -3.9321    0.0000 O   0  0  0  0  0  0  0  0  0  0  0  0
   13.7776   -1.2019    0.0000 N   0  0  0  0  0  0  0  0  0  0  0  0
   12.2782   -1.2450    0.0000 C   0  0  0  0  0  0  0  0  0  0  0  0
   12.5811   -2.7142    0.0000 C   0  0  0  0  0  0  0  0  0  0  0  0
   13.9366   -3.3565    0.0000 C   0  0  0  0  0  0  0  0  0  0  0  0
   12.3632   -4.1983    0.0000 C   0  0  0  0  0  0  0  0  0  0  0  0
   10.9690   -4.7516    0.0000 C   0  0  0  0  0  0  0  0  0  0  0  0
   10.8545   -0.7728    0.0000 C   0  0  0  0  0  0  0  0  0  0  0  0
    9.8635   -1.8988    0.0000 O   0  0  0  0  0  0  0  0  0  0  0  0
   10.5517    0.6964    0.0000 N   0  0  0  0  0  0  0  0  0  0  0  0
    9.1280    1.1686    0.0000 C   0  0  0  0  0  0  0  0  0  0  0  0
    8.9101   -0.3154    0.0000 C   0  0  0  0  0  0  0  0  0  0  0  0
    7.9517    2.0994    0.0000 C   0  0  0  0  0  0  0  0  0  0  0  0
    6.8485    1.0831    0.0000 O   0  0  0  0  0  0  0  0  0  0  0  0
    8.1696    3.5835    0.0000 N   0  0  0  0  0  0  0  0  0  0  0  0
    6.9933    4.5142    0.0000 C   0  0  0  0  0  0  0  0  0  0  0  0
    6.6287    3.0592    0.0000 C   0  0  0  0  0  0  0  0  0  0  0  0
    5.8514    1.7763    0.0000 C   0  0  0  0  0  0  0  0  0  0  0  0
    4.7306    0.7795    0.0000 C   0  0  0  0  0  0  0  0  0  0  0  0
    3.3657    0.1573    0.0000 C   0  0  0  0  0  0  0  0  0  0  0  0
    8.3254    5.2036    0.0000 C   0  0  0  0  0  0  0  0  0  0  0  0
    6.9128    6.0121    0.0000 C   0  0  0  0  0  0  0  0  0  0  0  0
    8.3819    6.3149    0.0000 O   0  0  0  0  0  0  0  0  0  0  0  0
    6.3943    7.4196    0.0000 N   0  0  0  0  0  0  0  0  0  0  0  0
    5.4841    8.6119    0.0000 C   0  0  0  0  0  0  0  0  0  0  0  0
    5.7757   10.0832    0.0000 C   0  0  0  0  0  0  0  0  0  0  0  0
    7.1957   10.5664    0.0000 C   0  0  0  0  0  0  0  0  0  0  0  0
    7.6395   11.9992    0.0000 C   0  0  0  0  0  0  0  0  0  0  0  0
    9.1394   12.0199    0.0000 N   0  0  0  0  0  0  0  0  0  0  0  0
    9.6225   10.5999    0.0000 C   0  0  0  0  0  0  0  0  0  0  0  0
    8.4213    9.7015    0.0000 N   0  0  0  0  0  0  0  0  0  0  0  0
    4.2628    9.4828    0.0000 C   0  0  0  0  0  0  0  0  0  0  0  0
    4.9420   10.8202    0.0000 O   0  0  0  0  0  0  0  0  0  0  0  0
    2.8391    9.9551    0.0000 N   0  0  0  0  0  0  0  0  0  0  0  0
    1.3395    9.9868    0.0000 C   0  0  0  0  0  0  0  0  0  0  0  0
    0.3709   11.1321    0.0000 C   0  0  0  0  0  0  0  0  0  0  0  0
    0.8785   12.5436    0.0000 C   0  0  0  0  0  0  0  0  0  0  0  0
   -0.0900   13.6890    0.0000 C   0  0  0  0  0  0  0  0  0  0  0  0
    1.8383   13.6964    0.0000 C   0  0  0  0  0  0  0  0  0  0  0  0
   -0.1029    9.5750    0.0000 C   0  0  0  0  0  0  0  0  0  0  0  0
   -0.7251   10.9399    0.0000 O   0  0  0  0  0  0  0  0  0  0  0  0
   -1.3598    8.7563    0.0000 N   0  0  0  0  0  0  0  0  0  0  0  0
   -2.3196    7.6036    0.0000 C   0  0  0  0  0  0  0  0  0  0  0  0
   -3.8190    7.5605    0.0000 C   0  0  0  0  0  0  0  0  0  0  0  0
   -2.8970    6.2192    0.0000 C   0  0  0  0  0  0  0  0  0  0  0  0
   -4.1246    7.0811    0.0000 O   0  0  0  0  0  0  0  0  0  0  0  0
   -3.0406    4.7261    0.0000 N   0  0  0  0  0  0  0  0  0  0  0  0
   -2.7378    3.2570    0.0000 C   0  0  0  0  0  0  0  0  0  0  0  0
   -2.0154    1.9424    0.0000 C   0  0  0  0  0  0  0  0  0  0  0  0
   -0.9376    0.8991    0.0000 C   0  0  0  0  0  0  0  0  0  0  0  0
    0.3998    0.2199    0.0000 C   0  0  0  0  0  0  0  0  0  0  0  0
    1.8780   -0.0349    0.0000 C   0  0  0  0  0  0  0  0  0  0  0  0
   -2.3555    1.8065    0.0000 C   0  0  0  0  0  0  0  0  0  0  0  0
   -2.2547    0.3099    0.0000 C   0  0  0  0  0  0  0  0  0  0  0  0
   -2.4389   -1.1788    0.0000 C   0  0  0  0  0  0  0  0  0  0  0  0
   -2.9015   -2.6057    0.0000 C   0  0  0  0  0  0  0  0  0  0  0  0
   -3.3877    4.6089    0.0000 C   0  0  0  0  0  0  0  0  0  0  0  0
   -2.1036    5.3843    0.0000 O   0  0  0  0  0  0  0  0  0  0  0  0
   -4.2816    5.8134    0.0000 N   0  0  0  0  0  0  0  0  0  0  0  0
   -5.3874    6.8269    0.0000 C   0  0  0  0  0  0  0  0  0  0  0  0
   -5.2505    8.3207    0.0000 C   0  0  0  0  0  0  0  0  0  0  0  0
   -6.3611    9.3289    0.0000 C   0  0  0  0  0  0  0  0  0  0  0  0
   -6.6650    7.6129    0.0000 C   0  0  0  0  0  0  0  0  0  0  0  0
   -6.1731    9.0299    0.0000 O   0  0  0  0  0  0  0  0  0  0  0  0
   -8.0683    8.1428    0.0000 N   0  0  0  0  0  0  0  0  0  0  0  0
   -9.5465    8.3977    0.0000 C   0  0  0  0  0  0  0  0  0  0  0  0
  -11.0462    8.3681    0.0000 C   0  0  0  0  0  0  0  0  0  0  0  0
  -11.2181    9.8582    0.0000 O   0  0  0  0  0  0  0  0  0  0  0  0
  -12.5132    8.0553    0.0000 N   0  0  0  0  0  0  0  0  0  0  0  0
  -13.8945    7.4705    0.0000 C   0  0  0  0  0  0  0  0  0  0  0  0
  -15.1964    8.2155    0.0000 C   0  0  0  0  0  0  0  0  0  0  0  0
  -15.2021    9.7155    0.0000 C   0  0  0  0  0  0  0  0  0  0  0  0
  -16.5040   10.4605    0.0000 O   0  0  0  0  0  0  0  0  0  0  0  0
  -13.9060   10.4705    0.0000 O   0  0  0  0  0  0  0  0  0  0  0  0
  -15.1402    6.6349    0.0000 C   0  0  0  0  0  0  0  0  0  0  0  0
  -16.2248    7.6710    0.0000 O   0  0  0  0  0  0  0  0  0  0  0  0
  -16.2052    5.5786    0.0000 N   0  0  0  0  0  0  0  0  0  0  0  0
  -17.0510    4.3398    0.0000 C   0  0  0  0  0  0  0  0  0  0  0  0
  -18.5490    4.2627    0.0000 C   0  0  0  0  0  0  0  0  0  0  0  0
  -19.3648    5.5215    0.0000 C   0  0  0  0  0  0  0  0  0  0  0  0
  -18.8260    6.9213    0.0000 C   0  0  0  0  0  0  0  0  0  0  0  0
  -19.9908    7.8664    0.0000 N   0  0  0  0  0  0  0  0  0  0  0  0
  -21.2496    7.0506    0.0000 C   0  0  0  0  0  0  0  0  0  0  0  0
  -22.6981    7.4402    0.0000 C   0  0  0  0  0  0  0  0  0  0  0  0
  -23.7597    6.3805    0.0000 C   0  0  0  0  0  0  0  0  0  0  0  0
  -23.3729    4.9313    0.0000 C   0  0  0  0  0  0  0  0  0  0  0  0
  -21.9243    4.5417    0.0000 C   0  0  0  0  0  0  0  0  0  0  0  0
  -20.8627    5.6014    0.0000 C   0  0  0  0  0  0  0  0  0  0  0  0
  -17.6472    2.9633    0.0000 C   0  0  0  0  0  0  0  0  0  0  0  0
  -19.1198    3.2486    0.0000 O   0  0  0  0  0  0  0  0  0  0  0  0
  -17.9720    1.4990    0.0000 N   0  0  0  0  0  0  0  0  0  0  0  0
  -18.0139   -0.0005    0.0000 C   0  0  0  0  0  0  0  0  0  0  0  0
  -19.2324   -0.8752    0.0000 C   0  0  0  0  0  0  0  0  0  0  0  0
  -20.5992   -0.2573    0.0000 C   0  0  0  0  0  0  0  0  0  0  0  0
  -21.8178   -1.1321    0.0000 C   0  0  0  0  0  0  0  0  0  0  0  0
  -23.1846   -0.5142    0.0000 C   0  0  0  0  0  0  0  0  0  0  0  0
  -17.7712   -1.4807    0.0000 C   0  0  0  0  0  0  0  0  0  0  0  0
  -19.1643   -2.0369    0.0000 O   0  0  0  0  0  0  0  0  0  0  0  0
  -17.2528   -2.8883    0.0000 N   0  0  0  0  0  0  0  0  0  0  0  0
  -16.4774   -4.1723    0.0000 C   0  0  0  0  0  0  0  0  0  0  0  0
  -17.0295   -5.5670    0.0000 C   0  0  0  0  0  0  0  0  0  0  0  0
  -18.5135   -5.7861    0.0000 C   0  0  0  0  0  0  0  0  0  0  0  0
  -19.0656   -7.1808    0.0000 O   0  0  0  0  0  0  0  0  0  0  0  0
  -19.4452   -4.6106    0.0000 O   0  0  0  0  0  0  0  0  0  0  0  0
  -15.4730   -5.2864    0.0000 C   0  0  0  0  0  0  0  0  0  0  0  0
  -16.3442   -6.5074    0.0000 O   0  0  0  0  0  0  0  0  0  0  0  0
  -14.2759   -6.1902    0.0000 N   0  0  0  0  0  0  0  0  0  0  0  0
  -12.9293   -6.8512    0.0000 C   0  0  0  0  0  0  0  0  0  0  0  0
  -11.4820   -7.2453    0.0000 C   0  0  0  0  0  0  0  0  0  0  0  0
   -9.9863   -7.3585    0.0000 C   0  0  0  0  0  0  0  0  0  0  0  0
   -8.4962   -7.1865    0.0000 C   0  0  0  0  0  0  0  0  0  0  0  0
   -7.0656   -6.7357    0.0000 C   0  0  0  0  0  0  0  0  0  0  0  0
   -5.7461   -6.0222    0.0000 C   0  0  0  0  0  0  0  0  0  0  0  0
   -4.5855   -5.0720    0.0000 C   0  0  0  0  0  0  0  0  0  0  0  0
   -3.6257   -3.9192    0.0000 C   0  0  0  0  0  0  0  0  0  0  0  0
  -14.1195   -7.7641    0.0000 C   0  0  0  0  0  0  0  0  0  0  0  0
  -12.6398   -8.3230    0.0000 C   0  0  0  0  0  0  0  0  0  0  0  0
  -11.3800   -9.1372    0.0000 O   0  0  0  0  0  0  0  0  0  0  0  0
  -13.7697   -9.3096    0.0000 N   0  0  0  0  0  0  0  0  0  0  0  0
  -13.4802  -10.7814    0.0000 C   0  0  0  0  0  0  0  0  0  0  0  0
  -12.7047  -12.0654    0.0000 C   0  0  0  0  0  0  0  0  0  0  0  0
  -12.9101  -13.5513    0.0000 O   0  0  0  0  0  0  0  0  0  0  0  0
  -14.6100  -11.7680    0.0000 C   0  0  0  0  0  0  0  0  0  0  0  0
  -16.0294  -11.2828    0.0000 O   0  0  0  0  0  0  0  0  0  0  0  0
  -14.3205  -13.2398    0.0000 N   0  0  0  0  0  0  0  0  0  0  0  0
  -15.4504  -14.2264    0.0000 C   0  0  0  0  0  0  0  0  0  0  0  0
  -16.8496  -14.7671    0.0000 C   0  0  0  0  0  0  0  0  0  0  0  0
  -17.8939  -13.6904    0.0000 C   0  0  0  0  0  0  0  0  0  0  0  0
  -17.9794  -15.7537    0.0000 C   0  0  0  0  0  0  0  0  0  0  0  0
  -19.3988  -15.2685    0.0000 C   0  0  0  0  0  0  0  0  0  0  0  0
  -15.1609  -15.6982    0.0000 C   0  0  0  0  0  0  0  0  0  0  0  0
  -16.0184  -16.9289    0.0000 O   0  0  0  0  0  0  0  0  0  0  0  0
  -13.7415  -16.1834    0.0000 O   0  0  0  0  0  0  0  0  0  0  0  0
   25.2052   -1.5150    0.0000 H   0  0  0  0  0  0  0  0  0  0  0  0
   24.7340   -5.9828    0.0000 H   0  0  0  0  0  0  0  0  0  0  0  0
   27.0867   -7.8442    0.0000 H   0  0  0  0  0  0  0  0  0  0  0  0
   27.5926   -1.8993    0.0000 H   0  0  0  0  0  0  0  0  0  0  0  0
   34.7210   -1.1922    0.0000 H   0  0  0  0  0  0  0  0  0  0  0  0
   35.0516   -6.3779    0.0000 H   0  0  0  0  0  0  0  0  0  0  0  0
   32.0577   -6.5687    0.0000 H   0  0  0  0  0  0  0  0  0  0  0  0
   37.2144   -4.9383    0.0000 H   0  0  0  0  0  0  0  0  0  0  0  0
   27.4015   -4.2622    0.0000 H   0  0  0  0  0  0  0  0  0  0  0  0
   25.7388   -1.5816    0.0000 H   0  0  0  0  0  0  0  0  0  0  0  0
   30.0649    1.1143    0.0000 H   0  0  0  0  0  0  0  0  0  0  0  0
   27.7368    2.2676    0.0000 H   0  0  0  0  0  0  0  0  0  0  0  0
   22.8172   -1.1531    0.0000 H   0  0  0  0  0  0  0  0  0  0  0  0
   21.9921   -4.4675    0.0000 H   0  0  0  0  0  0  0  0  0  0  0  0
   20.2141   -4.3165    0.0000 H   0  0  0  0  0  0  0  0  0  0  0  0
   21.1496   -1.2630    0.0000 H   0  0  0  0  0  0  0  0  0  0  0  0
   19.2417   -0.9828    0.0000 H   0  0  0  0  0  0  0  0  0  0  0  0
   17.6761   -0.3983    0.0000 H   0  0  0  0  0  0  0  0  0  0  0  0
   15.7612   -0.9666    0.0000 H   0  0  0  0  0  0  0  0  0  0  0  0
   17.1539   -5.1818    0.0000 H   0  0  0  0  0  0  0  0  0  0  0  0
   15.4569   -4.2660    0.0000 H   0  0  0  0  0  0  0  0  0  0  0  0
   20.6310   -5.0864    0.0000 H   0  0  0  0  0  0  0  0  0  0  0  0
   18.4252   -6.2665    0.0000 H   0  0  0  0  0  0  0  0  0  0  0  0
   14.4900    0.1181    0.0000 H   0  0  0  0  0  0  0  0  0  0  0  0
   12.4961    0.2390    0.0000 H   0  0  0  0  0  0  0  0  0  0  0  0
   11.0876   -2.5742    0.0000 H   0  0  0  0  0  0  0  0  0  0  0  0
   14.4632   -4.6006    0.0000 H   0  0  0  0  0  0  0  0  0  0  0  0
   15.5042   -3.1433    0.0000 H   0  0  0  0  0  0  0  0  0  0  0  0
   14.6144   -1.8207    0.0000 H   0  0  0  0  0  0  0  0  0  0  0  0
   12.6660   -5.6674    0.0000 H   0  0  0  0  0  0  0  0  0  0  0  0
   13.8285   -4.5192    0.0000 H   0  0  0  0  0  0  0  0  0  0  0  0
   10.7511   -6.2357    0.0000 H   0  0  0  0  0  0  0  0  0  0  0  0
    9.4696   -4.7947    0.0000 H   0  0  0  0  0  0  0  0  0  0  0  0
   10.4893   -3.3304    0.0000 H   0  0  0  0  0  0  0  0  0  0  0  0
   11.6726    1.6932    0.0000 H   0  0  0  0  0  0  0  0  0  0  0  0
    9.8403    2.4887    0.0000 H   0  0  0  0  0  0  0  0  0  0  0  0
    9.9642   -1.3826    0.0000 H   0  0  0  0  0  0  0  0  0  0  0  0
    8.1978   -1.6355    0.0000 H   0  0  0  0  0  0  0  0  0  0  0  0
    7.4864    0.1568    0.0000 H   0  0  0  0  0  0  0  0  0  0  0  0
    9.6208    3.9627    0.0000 H   0  0  0  0  0  0  0  0  0  0  0  0
    8.1254    2.9602    0.0000 H   0  0  0  0  0  0  0  0  0  0  0  0
    7.3214    1.7287    0.0000 H   0  0  0  0  0  0  0  0  0  0  0  0
    7.0812    0.9174    0.0000 H   0  0  0  0  0  0  0  0  0  0  0  0
    6.4702    0.4099    0.0000 H   0  0  0  0  0  0  0  0  0  0  0  0
    6.0154    0.0054    0.0000 H   0  0  0  0  0  0  0  0  0  0  0  0
    4.7363   -0.7205    0.0000 H   0  0  0  0  0  0  0  0  0  0  0  0
    3.7774   -1.2851    0.0000 H   0  0  0  0  0  0  0  0  0  0  0  0
    9.6778    4.5546    0.0000 H   0  0  0  0  0  0  0  0  0  0  0  0
    9.3415    6.3071    0.0000 H   0  0  0  0  0  0  0  0  0  0  0  0
    7.7307    6.5807    0.0000 H   0  0  0  0  0  0  0  0  0  0  0  0
    7.7089    8.1420    0.0000 H   0  0  0  0  0  0  0  0  0  0  0  0
    6.9452    8.9512    0.0000 H   0  0  0  0  0  0  0  0  0  0  0  0
    5.5464   11.5656    0.0000 H   0  0  0  0  0  0  0  0  0  0  0  0
    4.3282   10.4768    0.0000 H   0  0  0  0  0  0  0  0  0  0  0  0
    6.7412   13.2005    0.0000 H   0  0  0  0  0  0  0  0  0  0  0  0
   10.0042   13.2455    0.0000 H   0  0  0  0  0  0  0  0  0  0  0  0
   11.0554   10.1561    0.0000 H   0  0  0  0  0  0  0  0  0  0  0  0
    3.0939   11.4333    0.0000 H   0  0  0  0  0  0  0  0  0  0  0  0
    2.1453   11.2519    0.0000 H   0  0  0  0  0  0  0  0  0  0  0  0
   -1.0121   11.7129    0.0000 H   0  0  0  0  0  0  0  0  0  0  0  0
   -0.8393   10.2459    0.0000 H   0  0  0  0  0  0  0  0  0  0  0  0
    2.2615   11.9628    0.0000 H   0  0  0  0  0  0  0  0  0  0  0  0
    0.2418   15.1518    0.0000 H   0  0  0  0  0  0  0  0  0  0  0  0
   -1.3919   14.4340    0.0000 H   0  0  0  0  0  0  0  0  0  0  0  0
   -1.1832   12.6618    0.0000 H   0  0  0  0  0  0  0  0  0  0  0  0
    1.4953   15.1566    0.0000 H   0  0  0  0  0  0  0  0  0  0  0  0
    3.1345   14.4513    0.0000 H   0  0  0  0  0  0  0  0  0  0  0  0
    2.8069   12.5510    0.0000 H   0  0  0  0  0  0  0  0  0  0  0  0
   -2.3567    9.8772    0.0000 H   0  0  0  0  0  0  0  0  0  0  0  0
   -2.9756    8.9526    0.0000 H   0  0  0  0  0  0  0  0  0  0  0  0
   -4.4668    8.9259    0.0000 H   0  0  0  0  0  0  0  0  0  0  0  0
   -5.3057    7.3609    0.0000 H   0  0  0  0  0  0  0  0  0  0  0  0
   -4.0629    6.0804    0.0000 H   0  0  0  0  0  0  0  0  0  0  0  0
   -4.5385    4.6456    0.0000 H   0  0  0  0  0  0  0  0  0  0  0  0
   -2.3472    0.4795    0.0000 H   0  0  0  0  0  0  0  0  0  0  0  0
   -3.5107    1.8246    0.0000 H   0  0  0  0  0  0  0  0  0  0  0  0
   -0.8235   -0.5965    0.0000 H   0  0  0  0  0  0  0  0  0  0  0  0
   -2.0408   -0.1172    0.0000 H   0  0  0  0  0  0  0  0  0  0  0  0
    0.7755   -1.2323    0.0000 H   0  0  0  0  0  0  0  0  0  0  0  0
   -0.3548   -1.0764    0.0000 H   0  0  0  0  0  0  0  0  0  0  0  0
    1.8464   -1.5346    0.0000 H   0  0  0  0  0  0  0  0  0  0  0  0
   -1.2257    2.7931    0.0000 H   0  0  0  0  0  0  0  0  0  0  0  0
   -1.0501    1.0676    0.0000 H   0  0  0  0  0  0  0  0  0  0  0  0
   -0.7740    0.5501    0.0000 H   0  0  0  0  0  0  0  0  0  0  0  0
   -1.1127   -0.6627    0.0000 H   0  0  0  0  0  0  0  0  0  0  0  0
   -0.9395   -1.2231    0.0000 H   0  0  0  0  0  0  0  0  0  0  0  0
   -1.3658   -2.2269    0.0000 H   0  0  0  0  0  0  0  0  0  0  0  0
   -1.5250   -3.2018    0.0000 H   0  0  0  0  0  0  0  0  0  0  0  0
   -3.2983    6.9461    0.0000 H   0  0  0  0  0  0  0  0  0  0  0  0
   -4.0646    7.5341    0.0000 H   0  0  0  0  0  0  0  0  0  0  0  0
   -4.7812    9.7453    0.0000 H   0  0  0  0  0  0  0  0  0  0  0  0
   -3.8032    7.9265    0.0000 H   0  0  0  0  0  0  0  0  0  0  0  0
   -6.3388   10.6798    0.0000 H   0  0  0  0  0  0  0  0  0  0  0  0
   -7.8158    9.9507    0.0000 H   0  0  0  0  0  0  0  0  0  0  0  0
   -7.4557    8.0563    0.0000 H   0  0  0  0  0  0  0  0  0  0  0  0
   -7.8534    9.6274    0.0000 H   0  0  0  0  0  0  0  0  0  0  0  0
  -10.2389    9.7283    0.0000 H   0  0  0  0  0  0  0  0  0  0  0  0
   -8.8160    9.7078    0.0000 H   0  0  0  0  0  0  0  0  0  0  0  0
  -12.9640    9.4859    0.0000 H   0  0  0  0  0  0  0  0  0  0  0  0
  -13.8051    8.9678    0.0000 H   0  0  0  0  0  0  0  0  0  0  0  0
  -16.6325    8.6486    0.0000 H   0  0  0  0  0  0  0  0  0  0  0  0
  -16.0305    6.9688    0.0000 H   0  0  0  0  0  0  0  0  0  0  0  0
  -17.2323    6.6717    0.0000 H   0  0  0  0  0  0  0  0  0  0  0  0
  -17.7853    5.6478    0.0000 H   0  0  0  0  0  0  0  0  0  0  0  0
  -19.9913    3.8506    0.0000 H   0  0  0  0  0  0  0  0  0  0  0  0
  -18.5767    2.7630    0.0000 H   0  0  0  0  0  0  0  0  0  0  0  0
  -17.4347    7.4820    0.0000 H   0  0  0  0  0  0  0  0  0  0  0  0
  -19.9109    9.3643    0.0000 H   0  0  0  0  0  0  0  0  0  0  0  0
  -23.0850    8.8895    0.0000 H   0  0  0  0  0  0  0  0  0  0  0  0
  -25.2083    6.7701    0.0000 H   0  0  0  0  0  0  0  0  0  0  0  0
  -24.4345    3.8716    0.0000 H   0  0  0  0  0  0  0  0  0  0  0  0
  -21.5375    3.0925    0.0000 H   0  0  0  0  0  0  0  0  0  0  0  0
  -19.4271    1.8632    0.0000 H   0  0  0  0  0  0  0  0  0  0  0  0
  -19.2432    0.8591    0.0000 H   0  0  0  0  0  0  0  0  0  0  0  0
  -20.0783   -2.1140    0.0000 H   0  0  0  0  0  0  0  0  0  0  0  0
  -18.4449   -2.1518    0.0000 H   0  0  0  0  0  0  0  0  0  0  0  0
  -21.5365    0.9138    0.0000 H   0  0  0  0  0  0  0  0  0  0  0  0
  -20.0783    1.1493    0.0000 H   0  0  0  0  0  0  0  0  0  0  0  0
  -22.6636   -2.3708    0.0000 H   0  0  0  0  0  0  0  0  0  0  0  0
  -20.8805   -2.3032    0.0000 H   0  0  0  0  0  0  0  0  0  0  0  0
  -24.4031   -1.3889    0.0000 H   0  0  0  0  0  0  0  0  0  0  0  0
  -24.2576    0.5340    0.0000 H   0  0  0  0  0  0  0  0  0  0  0  0
  -22.4960    0.8185    0.0000 H   0  0  0  0  0  0  0  0  0  0  0  0
  -18.6047   -3.5381    0.0000 H   0  0  0  0  0  0  0  0  0  0  0  0
  -17.9722   -4.2969    0.0000 H   0  0  0  0  0  0  0  0  0  0  0  0
  -17.2539   -7.0501    0.0000 H   0  0  0  0  0  0  0  0  0  0  0  0
  -15.6768   -6.2151    0.0000 H   0  0  0  0  0  0  0  0  0  0  0  0
  -15.2117   -7.3625    0.0000 H   0  0  0  0  0  0  0  0  0  0  0  0
  -10.9192   -8.6357    0.0000 H   0  0  0  0  0  0  0  0  0  0  0  0
  -12.1769   -8.5747    0.0000 H   0  0  0  0  0  0  0  0  0  0  0  0
   -9.3301   -8.7073    0.0000 H   0  0  0  0  0  0  0  0  0  0  0  0
  -10.4170   -8.7953    0.0000 H   0  0  0  0  0  0  0  0  0  0  0  0
   -7.5965   -8.3868    0.0000 H   0  0  0  0  0  0  0  0  0  0  0  0
   -8.8280   -8.6494    0.0000 H   0  0  0  0  0  0  0  0  0  0  0  0
   -5.9550   -7.7440    0.0000 H   0  0  0  0  0  0  0  0  0  0  0  0
   -7.1145   -8.2349    0.0000 H   0  0  0  0  0  0  0  0  0  0  0  0
   -4.4648   -6.8021    0.0000 H   0  0  0  0  0  0  0  0  0  0  0  0
   -5.5105   -7.5036    0.0000 H   0  0  0  0  0  0  0  0  0  0  0  0
   -3.1265   -5.4200    0.0000 H   0  0  0  0  0  0  0  0  0  0  0  0
   -4.0738   -6.4820    0.0000 H   0  0  0  0  0  0  0  0  0  0  0  0
   -2.3870   -4.7651    0.0000 H   0  0  0  0  0  0  0  0  0  0  0  0
  -14.2896   -9.2545    0.0000 H   0  0  0  0  0  0  0  0  0  0  0  0
  -15.5501   -8.2150    0.0000 H   0  0  0  0  0  0  0  0  0  0  0  0
  -15.1133   -6.6406    0.0000 H   0  0  0  0  0  0  0  0  0  0  0  0
  -15.2376   -9.0010    0.0000 H   0  0  0  0  0  0  0  0  0  0  0  0
  -12.0810  -10.2407    0.0000 H   0  0  0  0  0  0  0  0  0  0  0  0
  -11.5369  -13.0068    0.0000 H   0  0  0  0  0  0  0  0  0  0  0  0
  -11.5749  -11.0788    0.0000 H   0  0  0  0  0  0  0  0  0  0  0  0
  -12.6536  -14.6630    0.0000 H   0  0  0  0  0  0  0  0  0  0  0  0
  -12.9709  -13.8944    0.0000 H   0  0  0  0  0  0  0  0  0  0  0  0
  -16.0635  -12.8574    0.0000 H   0  0  0  0  0  0  0  0  0  0  0  0
  -16.2364  -16.1361    0.0000 H   0  0  0  0  0  0  0  0  0  0  0  0
  -19.4876  -14.1758    0.0000 H   0  0  0  0  0  0  0  0  0  0  0  0
  -18.7928  -12.5417    0.0000 H   0  0  0  0  0  0  0  0  0  0  0  0
  -17.0162  -12.7087    0.0000 H   0  0  0  0  0  0  0  0  0  0  0  0
  -18.7037  -17.0673    0.0000 H   0  0  0  0  0  0  0  0  0  0  0  0
  -16.9350  -16.8304    0.0000 H   0  0  0  0  0  0  0  0  0  0  0  0
  -20.5286  -16.2551    0.0000 H   0  0  0  0  0  0  0  0  0  0  0  0
  -20.5666  -14.3272    0.0000 H   0  0  0  0  0  0  0  0  0  0  0  0
  -19.0139  -13.8188    0.0000 H   0  0  0  0  0  0  0  0  0  0  0  0
  1  2  1  0
  2  3  1  0
  3  4  2  0
  4  5  1  0
  5  6  2  0
  6  7  1  0
  7  8  2  0
  7  9  1  0
  9 10  1  0
 10 11  1  0
 11 12  2  0
  9 13  1  0
 13 14  1  0
 14 15  2  0
 15 16  1  0
 16 17  2  0
 17 18  1  0
 16 19  1  0
 14 20  1  0
 20 21  1  0
 21 22  2  0
 22 23  1  0
 23 24  2  0
 24 25  1  0
 25 26  2  0
 25 27  1  0
  1 28  2  0
  1 29  1  0
 29 30  1  0
 30 31  1  0
 31 32  1  0
 32 33  2  0
 32 34  1  0
 34 35  1  0
 35 36  1  0
 36 37  1  0
 37 38  1  0
 37 39  2  0
 35 40  1  0
 40 41  2  0
 40 42  1  0
 42 43  1  0
 43 44  1  0
 44 45  1  0
 44 46  1  0
 46 47  1  0
 43 48  1  0
 48 49  2  0
 48 50  1  0
 50 51  1  0
 51 52  1  0
 51 53  1  0
 53 54  2  0
 53 55  1  0
 56 55  1  1
 56 57  1  0
 57 58  1  0
 58 59  1  0
 59 60  1  0
 56 61  1  0
 56 62  1  0
 62 63  2  0
 62 64  1  0
 64 65  1  0
 65 66  1  0
 66 67  1  0
 67 68  2  0
 68 69  1  0
 69 70  1  0
 70 71  2  0
 65 72  1  0
 72 73  2  0
 72 74  1  0
 74 75  1  0
 75 76  1  0
 76 77  1  0
 77 78  1  0
 77 79  1  0
 75 80  1  0
 80 81  2  0
 80 82  1  0
 82 83  1  0
 83 84  1  0
 83 85  1  0
 85 86  2  0
 85 87  1  0
 87 88  1  0
 88 89  1  0
 89 90  1  0
 90 91  1  0
 91 92  1  0
 88 93  1  0
 93 94  1  0
 94 95  1  0
 95 96  1  0
 88 97  1  0
 97 98  2  0
 97 99  1  0
 99100  1  0
100101  1  0
101102  1  0
100103  1  0
103104  2  0
103105  1  0
105106  1  0
106107  1  0
107108  2  0
107109  1  0
109110  1  0
110111  1  0
111112  1  0
112113  2  0
112114  1  0
110115  1  0
115116  2  0
115117  1  0
117118  1  0
118119  1  0
119120  1  0
120121  2  0
121122  1  0
122123  1  0
123124  2  0
124125  1  0
125126  2  0
126127  1  0
127128  2  0
118129  1  0
129130  2  0
129131  1  0
131132  1  0
132133  1  0
133134  1  0
134135  1  0
135136  1  0
132137  1  0
137138  2  0
137139  1  0
139140  1  0
140141  1  0
141142  1  0
142143  2  0
142144  1  0
140145  1  0
145146  2  0
145147  1  0
147148  1  0
148149  1  0
149150  1  0
150151  1  0
151152  1  0
152153  1  0
153154  1  0
154155  1  0
148156  1  0
148157  1  1
157158  2  0
157159  1  0
159160  1  0
160161  1  0
161162  1  0
160163  1  0
163164  2  0
163165  1  0
165166  1  0
166167  1  0
167168  1  0
167169  1  0
169170  1  0
166171  1  0
171172  2  0
171173  1  0
  8  3  1  0
 71 67  1  0
128120  1  0
 11  6  1  0
128123  1  0
 18 13  2  0
 60 92  2  0
 22  9  1  0
 96155  2  0
 26 21  1  0
  2174  1  0
  4175  1  0
  5176  1  0
  8177  1  0
 15178  1  0
 17179  1  0
 18180  1  0
 19181  1  0
 23182  1  0
 24183  1  0
 26184  1  0
 27185  1  0
 29186  1  0
 30187  1  0
 30188  1  0
 31189  1  0
 31190  1  0
 34191  1  0
 35192  1  1
 36193  1  0
 36194  1  0
 38195  1  0
 38196  1  0
 42197  1  0
 43198  1  1
 44199  1  6
 45200  1  0
 45201  1  0
 45202  1  0
 46203  1  0
 46204  1  0
 47205  1  0
 47206  1  0
 47207  1  0
 50208  1  0
 51209  1  1
 52210  1  0
 52211  1  0
 52212  1  0
 55213  1  0
 57214  1  0
 57215  1  0
 58216  1  0
 58217  1  0
 59218  1  0
 59219  1  0
 60220  1  0
 61221  1  0
 61222  1  0
 61223  1  0
 64224  1  0
 65225  1  6
 66226  1  0
 66227  1  0
 68228  1  0
 69229  1  0
 70230  1  0
 74231  1  0
 75232  1  6
 76233  1  0
 76234  1  0
 77235  1  0
 78236  1  0
 78237  1  0
 78238  1  0
 79239  1  0
 79240  1  0
 79241  1  0
 82242  1  0
 83243  1  6
 84244  1  0
 84245  1  0
 84246  1  0
 87247  1  0
 89248  1  0
 89249  1  0
 90250  1  0
 90251  1  0
 91252  1  0
 91253  1  0
 92254  1  0
 93255  1  0
 93256  1  0
 94257  1  0
 94258  1  0
 95259  1  0
 95260  1  0
 96261  1  0
 99262  1  0
100263  1  6
101264  1  0
101265  1  0
102266  1  0
102267  1  0
102268  1  0
105269  1  0
106270  1  0
106271  1  0
109272  1  0
110273  1  6
111274  1  0
111275  1  0
117276  1  0
118277  1  6
119278  1  0
119279  1  0
121280  1  0
122281  1  0
124282  1  0
125283  1  0
126284  1  0
127285  1  0
131286  1  0
132287  1  1
133288  1  0
133289  1  0
134290  1  0
134291  1  0
135292  1  0
135293  1  0
136294  1  0
136295  1  0
136296  1  0
139297  1  0
140298  1  6
141299  1  0
141300  1  0
147301  1  0
149302  1  0
149303  1  0
150304  1  0
150305  1  0
151306  1  0
151307  1  0
152308  1  0
152309  1  0
153310  1  0
153311  1  0
154312  1  0
154313  1  0
155314  1  0
156315  1  0
156316  1  0
156317  1  0
159318  1  0
160319  1  1
161320  1  0
161321  1  0
162322  1  0
165323  1  0
166324  1  6
167325  1  1
168326  1  0
168327  1  0
168328  1  0
169329  1  0
169330  1  0
170331  1  0
170332  1  0
170333  1  0
M  CHG  3 114  -1 144  -1 173  -1
M  END
