
     RDKit          2D

403410  0  0  0  0  0  0  0  0999 V2000
   23.0941    4.6198    0.0000 C   0  0  0  0  0  0  0  0  0  0  0  0
   22.9651    6.1143    0.0000 N   0  0  0  0  0  0  0  0  0  0  0  0
   24.1948    6.9732    0.0000 C   0  0  0  0  0  0  0  0  0  0  0  0
   25.5536    6.3376    0.0000 C   0  0  0  0  0  0  0  0  0  0  0  0
   26.7833    7.1966    0.0000 C   0  0  0  0  0  0  0  0  0  0  0  0
   26.6543    8.6910    0.0000 C   0  0  0  0  0  0  0  0  0  0  0  0
   25.2956    9.3265    0.0000 C   0  0  0  0  0  0  0  0  0  0  0  0
   24.0659    8.4676    0.0000 C   0  0  0  0  0  0  0  0  0  0  0  0
   25.4802   10.8151    0.0000 C   0  0  0  0  0  0  0  0  0  0  0  0
   26.9530   11.0996    0.0000 O   0  0  0  0  0  0  0  0  0  0  0  0
   27.6786    9.7868    0.0000 C   0  0  0  0  0  0  0  0  0  0  0  0
   29.1672    9.6023    0.0000 O   0  0  0  0  0  0  0  0  0  0  0  0
   25.8193   12.2763    0.0000 C   0  0  0  0  0  0  0  0  0  0  0  0
   24.7235   13.3006    0.0000 C   0  0  0  0  0  0  0  0  0  0  0  0
   25.0627   14.7617    0.0000 C   0  0  0  0  0  0  0  0  0  0  0  0
   26.4976   15.1986    0.0000 C   0  0  0  0  0  0  0  0  0  0  0  0
   27.5935   14.1743    0.0000 C   0  0  0  0  0  0  0  0  0  0  0  0
   27.2543   12.7132    0.0000 C   0  0  0  0  0  0  0  0  0  0  0  0
   26.8368   16.6598    0.0000 O   0  0  0  0  0  0  0  0  0  0  0  0
   23.2885   12.8637    0.0000 O   0  0  0  0  0  0  0  0  0  0  0  0
   22.9494   11.4026    0.0000 C   0  0  0  0  0  0  0  0  0  0  0  0
   24.0452   10.3783    0.0000 C   0  0  0  0  0  0  0  0  0  0  0  0
   23.1947    9.3951    0.0000 C   0  0  0  0  0  0  0  0  0  0  0  0
   22.4294    9.1621    0.0000 C   0  0  0  0  0  0  0  0  0  0  0  0
   21.8449    9.7084    0.0000 C   0  0  0  0  0  0  0  0  0  0  0  0
   22.0258   10.4877    0.0000 C   0  0  0  0  0  0  0  0  0  0  0  0
   19.7403    9.0677    0.0000 O   0  0  0  0  0  0  0  0  0  0  0  0
   24.4528    3.9843    0.0000 S   0  0  0  0  0  0  0  0  0  0  0  0
   21.8643    3.7609    0.0000 N   0  0  0  0  0  0  0  0  0  0  0  0
   21.9933    2.2665    0.0000 C   0  0  0  0  0  0  0  0  0  0  0  0
   20.7635    1.4076    0.0000 C   0  0  0  0  0  0  0  0  0  0  0  0
   20.8925   -0.0869    0.0000 C   0  0  0  0  0  0  0  0  0  0  0  0
   21.6504   -0.3341    0.0000 O   0  0  0  0  0  0  0  0  0  0  0  0
   19.6628   -0.9458    0.0000 N   0  0  0  0  0  0  0  0  0  0  0  0
   19.7917   -2.4402    0.0000 C   0  0  0  0  0  0  0  0  0  0  0  0
   21.2411   -2.0537    0.0000 C   0  0  0  0  0  0  0  0  0  0  0  0
   22.7352   -2.1862    0.0000 O   0  0  0  0  0  0  0  0  0  0  0  0
   21.8047   -0.6636    0.0000 C   0  0  0  0  0  0  0  0  0  0  0  0
   19.4018   -3.8887    0.0000 C   0  0  0  0  0  0  0  0  0  0  0  0
   20.6867   -4.6627    0.0000 O   0  0  0  0  0  0  0  0  0  0  0  0
   17.9525   -4.2752    0.0000 N   0  0  0  0  0  0  0  0  0  0  0  0
   17.5625   -5.7236    0.0000 C   0  0  0  0  0  0  0  0  0  0  0  0
   19.0567   -5.8561    0.0000 C   0  0  0  0  0  0  0  0  0  0  0  0
   19.9185   -4.6284    0.0000 C   0  0  0  0  0  0  0  0  0  0  0  0
   21.4126   -4.7609    0.0000 C   0  0  0  0  0  0  0  0  0  0  0  0
   22.2744   -3.5332    0.0000 N   0  0  0  0  0  0  0  0  0  0  0  0
   23.7686   -3.6657    0.0000 C   0  0  0  0  0  0  0  0  0  0  0  0
   24.6304   -2.4380    0.0000 N   0  0  0  0  0  0  0  0  0  0  0  0
   24.4009   -5.0259    0.0000 N   0  0  0  0  0  0  0  0  0  0  0  0
   16.7007   -6.9513    0.0000 C   0  0  0  0  0  0  0  0  0  0  0  0
   17.6434   -8.1181    0.0000 O   0  0  0  0  0  0  0  0  0  0  0  0
   15.2066   -6.8188    0.0000 N   0  0  0  0  0  0  0  0  0  0  0  0
   14.3447   -8.0465    0.0000 C   0  0  0  0  0  0  0  0  0  0  0  0
   15.7035   -8.6821    0.0000 C   0  0  0  0  0  0  0  0  0  0  0  0
   16.9332   -7.8232    0.0000 C   0  0  0  0  0  0  0  0  0  0  0  0
   18.2919   -8.4587    0.0000 C   0  0  0  0  0  0  0  0  0  0  0  0
   19.6172   -7.7561    0.0000 N   0  0  0  0  0  0  0  0  0  0  0  0
   18.4209   -9.9531    0.0000 O   0  0  0  0  0  0  0  0  0  0  0  0
   13.1150   -8.9055    0.0000 C   0  0  0  0  0  0  0  0  0  0  0  0
   13.4252  -10.3730    0.0000 O   0  0  0  0  0  0  0  0  0  0  0  0
   11.7563   -8.2699    0.0000 N   0  0  0  0  0  0  0  0  0  0  0  0
   10.5265   -9.1288    0.0000 C   0  0  0  0  0  0  0  0  0  0  0  0
   11.7075  -10.0537    0.0000 C   0  0  0  0  0  0  0  0  0  0  0  0
    9.0772   -9.5154    0.0000 C   0  0  0  0  0  0  0  0  0  0  0  0
    9.0493  -11.0151    0.0000 O   0  0  0  0  0  0  0  0  0  0  0  0
    8.0178   -8.4534    0.0000 N   0  0  0  0  0  0  0  0  0  0  0  0
    6.5684   -8.8400    0.0000 C   0  0  0  0  0  0  0  0  0  0  0  0
    7.2008  -10.2002    0.0000 C   0  0  0  0  0  0  0  0  0  0  0  0
    8.6949  -10.3327    0.0000 C   0  0  0  0  0  0  0  0  0  0  0  0
    9.3272  -11.6929    0.0000 C   0  0  0  0  0  0  0  0  0  0  0  0
   10.8214  -11.8254    0.0000 N   0  0  0  0  0  0  0  0  0  0  0  0
   11.4537  -13.1856    0.0000 C   0  0  0  0  0  0  0  0  0  0  0  0
   12.9478  -13.3181    0.0000 N   0  0  0  0  0  0  0  0  0  0  0  0
   10.5919  -14.4133    0.0000 N   0  0  0  0  0  0  0  0  0  0  0  0
    5.0743   -8.7075    0.0000 C   0  0  0  0  0  0  0  0  0  0  0  0
    4.5352  -10.1072    0.0000 O   0  0  0  0  0  0  0  0  0  0  0  0
    4.4420   -7.3472    0.0000 N   0  0  0  0  0  0  0  0  0  0  0  0
    2.9479   -7.2147    0.0000 C   0  0  0  0  0  0  0  0  0  0  0  0
    3.0768   -8.7092    0.0000 C   0  0  0  0  0  0  0  0  0  0  0  0
    4.4355   -9.3447    0.0000 C   0  0  0  0  0  0  0  0  0  0  0  0
    4.5645  -10.8392    0.0000 C   0  0  0  0  0  0  0  0  0  0  0  0
    5.9232  -11.4747    0.0000 N   0  0  0  0  0  0  0  0  0  0  0  0
    6.0522  -12.9692    0.0000 C   0  0  0  0  0  0  0  0  0  0  0  0
    7.4109  -13.6047    0.0000 N   0  0  0  0  0  0  0  0  0  0  0  0
    4.8224  -13.8281    0.0000 N   0  0  0  0  0  0  0  0  0  0  0  0
    1.5891   -6.5792    0.0000 C   0  0  0  0  0  0  0  0  0  0  0  0
    0.6038   -7.7102    0.0000 O   0  0  0  0  0  0  0  0  0  0  0  0
    1.4602   -5.0848    0.0000 N   0  0  0  0  0  0  0  0  0  0  0  0
    0.1015   -4.4492    0.0000 C   0  0  0  0  0  0  0  0  0  0  0  0
   -0.2885   -5.8977    0.0000 C   0  0  0  0  0  0  0  0  0  0  0  0
    0.7709   -6.9596    0.0000 C   0  0  0  0  0  0  0  0  0  0  0  0
    0.3810   -8.4080    0.0000 N   0  0  0  0  0  0  0  0  0  0  0  0
    2.2707   -6.9353    0.0000 O   0  0  0  0  0  0  0  0  0  0  0  0
   -0.9579   -3.3873    0.0000 C   0  0  0  0  0  0  0  0  0  0  0  0
   -2.2707   -4.1131    0.0000 O   0  0  0  0  0  0  0  0  0  0  0  0
   -0.5680   -1.9389    0.0000 N   0  0  0  0  0  0  0  0  0  0  0  0
   -1.6274   -0.8770    0.0000 C   0  0  0  0  0  0  0  0  0  0  0  0
   -2.1084   -2.2978    0.0000 C   0  0  0  0  0  0  0  0  0  0  0  0
   -2.8496   -3.6018    0.0000 C   0  0  0  0  0  0  0  0  0  0  0  0
   -3.8243   -4.7421    0.0000 C   0  0  0  0  0  0  0  0  0  0  0  0
   -4.9970   -5.6772    0.0000 C   0  0  0  0  0  0  0  0  0  0  0  0
   -0.2055   -0.3993    0.0000 C   0  0  0  0  0  0  0  0  0  0  0  0
   -1.4240    0.6092    0.0000 C   0  0  0  0  0  0  0  0  0  0  0  0
    0.0711    0.7311    0.0000 O   0  0  0  0  0  0  0  0  0  0  0  0
   -1.5055    2.1069    0.0000 N   0  0  0  0  0  0  0  0  0  0  0  0
   -1.8689    3.5622    0.0000 C   0  0  0  0  0  0  0  0  0  0  0  0
   -0.9310    4.7328    0.0000 C   0  0  0  0  0  0  0  0  0  0  0  0
    0.5517    4.5058    0.0000 C   0  0  0  0  0  0  0  0  0  0  0  0
    1.4897    5.6764    0.0000 C   0  0  0  0  0  0  0  0  0  0  0  0
    2.9724    5.4494    0.0000 N   0  0  0  0  0  0  0  0  0  0  0  0
    3.9104    6.6200    0.0000 C   0  0  0  0  0  0  0  0  0  0  0  0
    5.3931    6.3930    0.0000 N   0  0  0  0  0  0  0  0  0  0  0  0
    3.3656    8.0176    0.0000 N   0  0  0  0  0  0  0  0  0  0  0  0
   -2.5012    4.9224    0.0000 C   0  0  0  0  0  0  0  0  0  0  0  0
   -1.3094    5.8333    0.0000 O   0  0  0  0  0  0  0  0  0  0  0  0
   -3.3796    6.1384    0.0000 N   0  0  0  0  0  0  0  0  0  0  0  0
   -4.4721    7.1662    0.0000 C   0  0  0  0  0  0  0  0  0  0  0  0
   -4.3159    8.6580    0.0000 C   0  0  0  0  0  0  0  0  0  0  0  0
   -2.9459    9.2687    0.0000 C   0  0  0  0  0  0  0  0  0  0  0  0
   -2.7897   10.7605    0.0000 C   0  0  0  0  0  0  0  0  0  0  0  0
   -1.4196   11.3712    0.0000 N   0  0  0  0  0  0  0  0  0  0  0  0
   -1.2634   12.8630    0.0000 C   0  0  0  0  0  0  0  0  0  0  0  0
    0.1067   13.4737    0.0000 N   0  0  0  0  0  0  0  0  0  0  0  0
   -2.4773   13.7442    0.0000 N   0  0  0  0  0  0  0  0  0  0  0  0
   -5.7395    7.9686    0.0000 C   0  0  0  0  0  0  0  0  0  0  0  0
   -5.2293    9.3792    0.0000 O   0  0  0  0  0  0  0  0  0  0  0  0
   -7.1357    8.5167    0.0000 N   0  0  0  0  0  0  0  0  0  0  0  0
   -8.6105    8.7906    0.0000 C   0  0  0  0  0  0  0  0  0  0  0  0
   -9.2857   10.1301    0.0000 C   0  0  0  0  0  0  0  0  0  0  0  0
   -8.4632   11.3845    0.0000 C   0  0  0  0  0  0  0  0  0  0  0  0
   -9.1384   12.7240    0.0000 C   0  0  0  0  0  0  0  0  0  0  0  0
   -8.3160   13.9784    0.0000 N   0  0  0  0  0  0  0  0  0  0  0  0
   -8.9911   15.3179    0.0000 C   0  0  0  0  0  0  0  0  0  0  0  0
   -8.1687   16.5723    0.0000 N   0  0  0  0  0  0  0  0  0  0  0  0
  -10.4887   15.4029    0.0000 N   0  0  0  0  0  0  0  0  0  0  0  0
  -10.1105    8.7805    0.0000 C   0  0  0  0  0  0  0  0  0  0  0  0
  -10.4439   10.2430    0.0000 O   0  0  0  0  0  0  0  0  0  0  0  0
  -11.5814    8.4867    0.0000 N   0  0  0  0  0  0  0  0  0  0  0  0
  -12.9702    7.9198    0.0000 C   0  0  0  0  0  0  0  0  0  0  0  0
  -14.2623    8.6816    0.0000 C   0  0  0  0  0  0  0  0  0  0  0  0
  -14.2487   10.1815    0.0000 C   0  0  0  0  0  0  0  0  0  0  0  0
  -13.0271   11.0521    0.0000 C   0  0  0  0  0  0  0  0  0  0  0  0
  -13.4776   12.4829    0.0000 N   0  0  0  0  0  0  0  0  0  0  0  0
  -14.9776   12.4965    0.0000 C   0  0  0  0  0  0  0  0  0  0  0  0
  -15.9711   13.6203    0.0000 C   0  0  0  0  0  0  0  0  0  0  0  0
  -17.4411   13.3219    0.0000 C   0  0  0  0  0  0  0  0  0  0  0  0
  -17.9176   11.8996    0.0000 C   0  0  0  0  0  0  0  0  0  0  0  0
  -16.9241   10.7757    0.0000 C   0  0  0  0  0  0  0  0  0  0  0  0
  -15.4541   11.0742    0.0000 C   0  0  0  0  0  0  0  0  0  0  0  0
  -14.2266    7.1003    0.0000 C   0  0  0  0  0  0  0  0  0  0  0  0
  -15.2977    8.1504    0.0000 O   0  0  0  0  0  0  0  0  0  0  0  0
  -15.3051    6.0579    0.0000 N   0  0  0  0  0  0  0  0  0  0  0  0
  -16.1670    4.8302    0.0000 C   0  0  0  0  0  0  0  0  0  0  0  0
  -17.6658    4.7725    0.0000 C   0  0  0  0  0  0  0  0  0  0  0  0
  -18.4653    6.0417    0.0000 C   0  0  0  0  0  0  0  0  0  0  0  0
  -19.9642    5.9840    0.0000 C   0  0  0  0  0  0  0  0  0  0  0  0
  -20.7636    7.2532    0.0000 N   0  0  0  0  0  0  0  0  0  0  0  0
  -22.2625    7.1955    0.0000 C   0  0  0  0  0  0  0  0  0  0  0  0
  -23.0619    8.4647    0.0000 N   0  0  0  0  0  0  0  0  0  0  0  0
  -22.9619    5.8685    0.0000 N   0  0  0  0  0  0  0  0  0  0  0  0
  -16.7809    3.4616    0.0000 C   0  0  0  0  0  0  0  0  0  0  0  0
  -18.2497    3.7658    0.0000 O   0  0  0  0  0  0  0  0  0  0  0  0
  -17.1246    2.0015    0.0000 N   0  0  0  0  0  0  0  0  0  0  0  0
  -17.1859    0.5027    0.0000 C   0  0  0  0  0  0  0  0  0  0  0  0
  -18.4156   -0.3562    0.0000 C   0  0  0  0  0  0  0  0  0  0  0  0
  -19.7744    0.2794    0.0000 C   0  0  0  0  0  0  0  0  0  0  0  0
  -21.0041   -0.5796    0.0000 C   0  0  0  0  0  0  0  0  0  0  0  0
  -22.3628    0.0560    0.0000 O   0  0  0  0  0  0  0  0  0  0  0  0
  -20.8751   -2.0740    0.0000 O   0  0  0  0  0  0  0  0  0  0  0  0
  -16.9624   -0.9805    0.0000 C   0  0  0  0  0  0  0  0  0  0  0  0
  -18.3625   -1.5187    0.0000 O   0  0  0  0  0  0  0  0  0  0  0  0
  -16.4622   -2.3947    0.0000 N   0  0  0  0  0  0  0  0  0  0  0  0
  -15.7035   -3.6886    0.0000 C   0  0  0  0  0  0  0  0  0  0  0  0
  -14.7136   -4.8156    0.0000 C   0  0  0  0  0  0  0  0  0  0  0  0
  -13.5283   -5.7348    0.0000 C   0  0  0  0  0  0  0  0  0  0  0  0
  -12.1904   -6.4132    0.0000 C   0  0  0  0  0  0  0  0  0  0  0  0
  -10.7483   -6.8260    0.0000 C   0  0  0  0  0  0  0  0  0  0  0  0
   -9.2542   -6.9585    0.0000 C   0  0  0  0  0  0  0  0  0  0  0  0
   -7.7620   -6.8059    0.0000 C   0  0  0  0  0  0  0  0  0  0  0  0
   -6.3256   -6.3736    0.0000 C   0  0  0  0  0  0  0  0  0  0  0  0
  -17.1998   -3.7939    0.0000 C   0  0  0  0  0  0  0  0  0  0  0  0
  -16.2737   -5.0760    0.0000 C   0  0  0  0  0  0  0  0  0  0  0  0
  -15.6718   -6.4500    0.0000 O   0  0  0  0  0  0  0  0  0  0  0  0
  -17.7603   -5.2760    0.0000 N   0  0  0  0  0  0  0  0  0  0  0  0
  -18.3304   -6.6634    0.0000 C   0  0  0  0  0  0  0  0  0  0  0  0
  -18.3917   -8.1621    0.0000 C   0  0  0  0  0  0  0  0  0  0  0  0
  -19.7203   -8.8585    0.0000 C   0  0  0  0  0  0  0  0  0  0  0  0
  -19.7815  -10.3572    0.0000 C   0  0  0  0  0  0  0  0  0  0  0  0
  -21.0153  -11.2103    0.0000 N   0  0  0  0  0  0  0  0  0  0  0  0
  -18.5142  -11.1596    0.0000 O   0  0  0  0  0  0  0  0  0  0  0  0
  -19.8171   -6.8633    0.0000 C   0  0  0  0  0  0  0  0  0  0  0  0
  -20.7335   -5.6758    0.0000 O   0  0  0  0  0  0  0  0  0  0  0  0
  -20.3872   -8.2507    0.0000 N   0  0  0  0  0  0  0  0  0  0  0  0
  -21.8738   -8.4507    0.0000 C   0  0  0  0  0  0  0  0  0  0  0  0
  -23.3392   -8.1301    0.0000 C   0  0  0  0  0  0  0  0  0  0  0  0
  -23.7942   -6.7008    0.0000 C   0  0  0  0  0  0  0  0  0  0  0  0
  -25.2596   -6.3802    0.0000 C   0  0  0  0  0  0  0  0  0  0  0  0
  -25.7146   -4.9509    0.0000 N   0  0  0  0  0  0  0  0  0  0  0  0
  -27.1799   -4.6303    0.0000 C   0  0  0  0  0  0  0  0  0  0  0  0
  -27.6350   -3.2010    0.0000 N   0  0  0  0  0  0  0  0  0  0  0  0
  -28.1902   -5.7390    0.0000 N   0  0  0  0  0  0  0  0  0  0  0  0
  -22.4440   -9.8381    0.0000 C   0  0  0  0  0  0  0  0  0  0  0  0
  -23.8952  -10.2177    0.0000 O   0  0  0  0  0  0  0  0  0  0  0  0
  -21.6791  -11.1284    0.0000 O   0  0  0  0  0  0  0  0  0  0  0  0
   21.5391    6.5794    0.0000 H   0  0  0  0  0  0  0  0  0  0  0  0
   25.6825    4.8432    0.0000 H   0  0  0  0  0  0  0  0  0  0  0  0
   28.1420    6.5610    0.0000 H   0  0  0  0  0  0  0  0  0  0  0  0
   22.5938    8.7555    0.0000 H   0  0  0  0  0  0  0  0  0  0  0  0
   23.9668   15.7860    0.0000 H   0  0  0  0  0  0  0  0  0  0  0  0
   29.0284   14.6112    0.0000 H   0  0  0  0  0  0  0  0  0  0  0  0
   28.3501   11.6889    0.0000 H   0  0  0  0  0  0  0  0  0  0  0  0
   28.2718   17.0966    0.0000 H   0  0  0  0  0  0  0  0  0  0  0  0
   24.8019    7.8928    0.0000 H   0  0  0  0  0  0  0  0  0  0  0  0
   21.7563    7.0713    0.0000 H   0  0  0  0  0  0  0  0  0  0  0  0
   20.4186   11.9900    0.0000 H   0  0  0  0  0  0  0  0  0  0  0  0
   18.6445   10.0920    0.0000 H   0  0  0  0  0  0  0  0  0  0  0  0
   20.5056    4.3964    0.0000 H   0  0  0  0  0  0  0  0  0  0  0  0
   23.4426    2.6530    0.0000 H   0  0  0  0  0  0  0  0  0  0  0  0
   22.6256    0.9063    0.0000 H   0  0  0  0  0  0  0  0  0  0  0  0
   20.1312    2.7678    0.0000 H   0  0  0  0  0  0  0  0  0  0  0  0
   19.3142    1.0210    0.0000 H   0  0  0  0  0  0  0  0  0  0  0  0
   18.3041   -0.3103    0.0000 H   0  0  0  0  0  0  0  0  0  0  0  0
   18.2976   -2.3077    0.0000 H   0  0  0  0  0  0  0  0  0  0  0  0
   21.7278   -3.4726    0.0000 H   0  0  0  0  0  0  0  0  0  0  0  0
   23.5970   -0.9585    0.0000 H   0  0  0  0  0  0  0  0  0  0  0  0
   23.0166   -0.0666    0.0000 H   0  0  0  0  0  0  0  0  0  0  0  0
   21.5021    0.8891    0.0000 H   0  0  0  0  0  0  0  0  0  0  0  0
   20.2326   -0.0749    0.0000 H   0  0  0  0  0  0  0  0  0  0  0  0
   16.8930   -3.2133    0.0000 H   0  0  0  0  0  0  0  0  0  0  0  0
   16.2038   -5.0881    0.0000 H   0  0  0  0  0  0  0  0  0  0  0  0
   20.3278   -6.6525    0.0000 H   0  0  0  0  0  0  0  0  0  0  0  0
   18.8462   -7.3413    0.0000 H   0  0  0  0  0  0  0  0  0  0  0  0
   20.3084   -3.1800    0.0000 H   0  0  0  0  0  0  0  0  0  0  0  0
   18.7539   -3.6830    0.0000 H   0  0  0  0  0  0  0  0  0  0  0  0
   22.7713   -5.3964    0.0000 H   0  0  0  0  0  0  0  0  0  0  0  0
   21.2021   -6.2461    0.0000 H   0  0  0  0  0  0  0  0  0  0  0  0
   21.9900   -2.0604    0.0000 H   0  0  0  0  0  0  0  0  0  0  0  0
   26.1245   -2.5705    0.0000 H   0  0  0  0  0  0  0  0  0  0  0  0
   24.1686   -1.0108    0.0000 H   0  0  0  0  0  0  0  0  0  0  0  0
   25.8950   -5.1584    0.0000 H   0  0  0  0  0  0  0  0  0  0  0  0
   23.5391   -6.2536    0.0000 H   0  0  0  0  0  0  0  0  0  0  0  0
   14.5742   -5.4586    0.0000 H   0  0  0  0  0  0  0  0  0  0  0  0
   13.2853   -6.9846    0.0000 H   0  0  0  0  0  0  0  0  0  0  0  0
   16.7629   -9.7440    0.0000 H   0  0  0  0  0  0  0  0  0  0  0  0
   14.8416   -9.9098    0.0000 H   0  0  0  0  0  0  0  0  0  0  0  0
   17.7950   -6.5955    0.0000 H   0  0  0  0  0  0  0  0  0  0  0  0
   16.1622   -6.5365    0.0000 H   0  0  0  0  0  0  0  0  0  0  0  0
   20.8804   -8.2353    0.0000 H   0  0  0  0  0  0  0  0  0  0  0  0
   19.7988   -6.1001    0.0000 H   0  0  0  0  0  0  0  0  0  0  0  0
   11.6273   -6.7755    0.0000 H   0  0  0  0  0  0  0  0  0  0  0  0
    9.8942   -7.7686    0.0000 H   0  0  0  0  0  0  0  0  0  0  0  0
   13.0716   -9.9838    0.0000 H   0  0  0  0  0  0  0  0  0  0  0  0
   12.2183  -11.5510    0.0000 H   0  0  0  0  0  0  0  0  0  0  0  0
   10.6006  -11.3217    0.0000 H   0  0  0  0  0  0  0  0  0  0  0  0
    8.4077   -7.0050    0.0000 H   0  0  0  0  0  0  0  0  0  0  0  0
    6.4395   -7.3455    0.0000 H   0  0  0  0  0  0  0  0  0  0  0  0
    7.1466  -11.6992    0.0000 H   0  0  0  0  0  0  0  0  0  0  0  0
    5.8880  -10.9259    0.0000 H   0  0  0  0  0  0  0  0  0  0  0  0
   10.1443   -9.9461    0.0000 H   0  0  0  0  0  0  0  0  0  0  0  0
    8.9314   -8.8514    0.0000 H   0  0  0  0  0  0  0  0  0  0  0  0
    9.4562  -13.1873    0.0000 H   0  0  0  0  0  0  0  0  0  0  0  0
    7.9358  -12.2532    0.0000 H   0  0  0  0  0  0  0  0  0  0  0  0
   11.8264  -10.7119    0.0000 H   0  0  0  0  0  0  0  0  0  0  0  0
   13.5801  -14.6783    0.0000 H   0  0  0  0  0  0  0  0  0  0  0  0
   13.8096  -12.0904    0.0000 H   0  0  0  0  0  0  0  0  0  0  0  0
   11.2242  -15.7735    0.0000 H   0  0  0  0  0  0  0  0  0  0  0  0
    9.0977  -14.2808    0.0000 H   0  0  0  0  0  0  0  0  0  0  0  0
    5.3038   -6.1195    0.0000 H   0  0  0  0  0  0  0  0  0  0  0  0
    3.3378   -5.7663    0.0000 H   0  0  0  0  0  0  0  0  0  0  0  0
    2.5132  -10.0993    0.0000 H   0  0  0  0  0  0  0  0  0  0  0  0
    1.5777   -8.7598    0.0000 H   0  0  0  0  0  0  0  0  0  0  0  0
    5.9297   -9.4772    0.0000 H   0  0  0  0  0  0  0  0  0  0  0  0
    5.1644   -8.0337    0.0000 H   0  0  0  0  0  0  0  0  0  0  0  0
    4.1746  -12.2876    0.0000 H   0  0  0  0  0  0  0  0  0  0  0  0
    3.0654  -10.8898    0.0000 H   0  0  0  0  0  0  0  0  0  0  0  0
    7.3242  -10.9389    0.0000 H   0  0  0  0  0  0  0  0  0  0  0  0
    7.5399  -15.0991    0.0000 H   0  0  0  0  0  0  0  0  0  0  0  0
    8.6406  -12.7458    0.0000 H   0  0  0  0  0  0  0  0  0  0  0  0
    4.9514  -15.3225    0.0000 H   0  0  0  0  0  0  0  0  0  0  0  0
    3.4637  -13.1925    0.0000 H   0  0  0  0  0  0  0  0  0  0  0  0
    2.6899   -4.2259    0.0000 H   0  0  0  0  0  0  0  0  0  0  0  0
    0.9633   -3.2215    0.0000 H   0  0  0  0  0  0  0  0  0  0  0  0
   -1.1503   -7.1254    0.0000 H   0  0  0  0  0  0  0  0  0  0  0  0
   -1.6472   -5.2621    0.0000 H   0  0  0  0  0  0  0  0  0  0  0  0
    1.3031   -9.5911    0.0000 H   0  0  0  0  0  0  0  0  0  0  0  0
   -1.0684   -8.7945    0.0000 H   0  0  0  0  0  0  0  0  0  0  0  0
    0.9176   -1.7319    0.0000 H   0  0  0  0  0  0  0  0  0  0  0  0
   -0.6176   -2.4635    0.0000 H   0  0  0  0  0  0  0  0  0  0  0  0
   -1.4269   -3.6340    0.0000 H   0  0  0  0  0  0  0  0  0  0  0  0
   -1.4820   -4.2180    0.0000 H   0  0  0  0  0  0  0  0  0  0  0  0
   -2.2608   -4.9814    0.0000 H   0  0  0  0  0  0  0  0  0  0  0  0
   -2.3698   -5.1090    0.0000 H   0  0  0  0  0  0  0  0  0  0  0  0
   -3.5071   -6.2082    0.0000 H   0  0  0  0  0  0  0  0  0  0  0  0
   -4.1776   -6.9336    0.0000 H   0  0  0  0  0  0  0  0  0  0  0  0
    1.0317   -1.2474    0.0000 H   0  0  0  0  0  0  0  0  0  0  0  0
    1.0725    0.3859    0.0000 H   0  0  0  0  0  0  0  0  0  0  0  0
   -0.5827    1.0525    0.0000 H   0  0  0  0  0  0  0  0  0  0  0  0
   -0.0060    2.1480    0.0000 H   0  0  0  0  0  0  0  0  0  0  0  0
   -0.4536    3.0654    0.0000 H   0  0  0  0  0  0  0  0  0  0  0  0
   -0.4500    6.1536    0.0000 H   0  0  0  0  0  0  0  0  0  0  0  0
   -2.0332    5.7502    0.0000 H   0  0  0  0  0  0  0  0  0  0  0  0
    1.8674    3.7854    0.0000 H   0  0  0  0  0  0  0  0  0  0  0  0
    0.4288    3.0109    0.0000 H   0  0  0  0  0  0  0  0  0  0  0  0
    1.9707    7.0972    0.0000 H   0  0  0  0  0  0  0  0  0  0  0  0
    0.2717    6.5518    0.0000 H   0  0  0  0  0  0  0  0  0  0  0  0
    3.5172    4.0518    0.0000 H   0  0  0  0  0  0  0  0  0  0  0  0
    6.3310    7.5636    0.0000 H   0  0  0  0  0  0  0  0  0  0  0  0
    5.9379    4.9954    0.0000 H   0  0  0  0  0  0  0  0  0  0  0  0
    4.3035    9.1881    0.0000 H   0  0  0  0  0  0  0  0  0  0  0  0
    1.8829    8.2446    0.0000 H   0  0  0  0  0  0  0  0  0  0  0  0
   -2.1403    6.9836    0.0000 H   0  0  0  0  0  0  0  0  0  0  0  0
   -3.0129    7.5134    0.0000 H   0  0  0  0  0  0  0  0  0  0  0  0
   -4.6794   10.1133    0.0000 H   0  0  0  0  0  0  0  0  0  0  0  0
   -5.7932    8.9180    0.0000 H   0  0  0  0  0  0  0  0  0  0  0  0
   -1.4496    9.3739    0.0000 H   0  0  0  0  0  0  0  0  0  0  0  0
   -2.2411    7.9446    0.0000 H   0  0  0  0  0  0  0  0  0  0  0  0
   -3.1532   12.2158    0.0000 H   0  0  0  0  0  0  0  0  0  0  0  0
   -4.2877   10.8385    0.0000 H   0  0  0  0  0  0  0  0  0  0  0  0
   -0.2057   10.4900    0.0000 H   0  0  0  0  0  0  0  0  0  0  0  0
    0.2628   14.9655    0.0000 H   0  0  0  0  0  0  0  0  0  0  0  0
    1.3205   12.5925    0.0000 H   0  0  0  0  0  0  0  0  0  0  0  0
   -2.3211   15.2361    0.0000 H   0  0  0  0  0  0  0  0  0  0  0  0
   -3.8474   13.1336    0.0000 H   0  0  0  0  0  0  0  0  0  0  0  0
   -6.5502    9.8977    0.0000 H   0  0  0  0  0  0  0  0  0  0  0  0
   -7.5706    9.8717    0.0000 H   0  0  0  0  0  0  0  0  0  0  0  0
  -10.3782   11.1578    0.0000 H   0  0  0  0  0  0  0  0  0  0  0  0
  -10.6690    9.5501    0.0000 H   0  0  0  0  0  0  0  0  0  0  0  0
   -7.2614   12.2820    0.0000 H   0  0  0  0  0  0  0  0  0  0  0  0
   -7.1545   10.6517    0.0000 H   0  0  0  0  0  0  0  0  0  0  0  0
  -10.2310   13.7517    0.0000 H   0  0  0  0  0  0  0  0  0  0  0  0
  -10.4407   11.9797    0.0000 H   0  0  0  0  0  0  0  0  0  0  0  0
   -6.8184   13.8934    0.0000 H   0  0  0  0  0  0  0  0  0  0  0  0
   -8.8439   17.9118    0.0000 H   0  0  0  0  0  0  0  0  0  0  0  0
   -6.6711   16.4873    0.0000 H   0  0  0  0  0  0  0  0  0  0  0  0
  -11.1639   16.7424    0.0000 H   0  0  0  0  0  0  0  0  0  0  0  0
  -11.3112   14.1485    0.0000 H   0  0  0  0  0  0  0  0  0  0  0  0
  -11.8354    9.9650    0.0000 H   0  0  0  0  0  0  0  0  0  0  0  0
  -12.8614    9.4158    0.0000 H   0  0  0  0  0  0  0  0  0  0  0  0
  -15.6927    9.1332    0.0000 H   0  0  0  0  0  0  0  0  0  0  0  0
  -15.1125    7.4458    0.0000 H   0  0  0  0  0  0  0  0  0  0  0  0
  -11.5574   10.7525    0.0000 H   0  0  0  0  0  0  0  0  0  0  0  0
  -12.5849   13.6883    0.0000 H   0  0  0  0  0  0  0  0  0  0  0  0
  -15.4946   15.0426    0.0000 H   0  0  0  0  0  0  0  0  0  0  0  0
  -18.4346   14.4457    0.0000 H   0  0  0  0  0  0  0  0  0  0  0  0
  -19.3876   11.6011    0.0000 H   0  0  0  0  0  0  0  0  0  0  0  0
  -17.4006    9.3534    0.0000 H   0  0  0  0  0  0  0  0  0  0  0  0
  -16.3181    7.1642    0.0000 H   0  0  0  0  0  0  0  0  0  0  0  0
  -16.7183    6.2252    0.0000 H   0  0  0  0  0  0  0  0  0  0  0  0
  -19.0546    4.2056    0.0000 H   0  0  0  0  0  0  0  0  0  0  0  0
  -17.7129    3.2732    0.0000 H   0  0  0  0  0  0  0  0  0  0  0  0
  -18.7824    7.5078    0.0000 H   0  0  0  0  0  0  0  0  0  0  0  0
  -17.2550    6.9278    0.0000 H   0  0  0  0  0  0  0  0  0  0  0  0
  -21.3529    5.4171    0.0000 H   0  0  0  0  0  0  0  0  0  0  0  0
  -19.8281    4.4902    0.0000 H   0  0  0  0  0  0  0  0  0  0  0  0
  -20.0641    8.5801    0.0000 H   0  0  0  0  0  0  0  0  0  0  0  0
  -24.5608    8.4070    0.0000 H   0  0  0  0  0  0  0  0  0  0  0  0
  -22.3624    9.7916    0.0000 H   0  0  0  0  0  0  0  0  0  0  0  0
  -24.4608    5.8108    0.0000 H   0  0  0  0  0  0  0  0  0  0  0  0
  -22.1625    4.5993    0.0000 H   0  0  0  0  0  0  0  0  0  0  0  0
  -18.5749    2.3846    0.0000 H   0  0  0  0  0  0  0  0  0  0  0  0
  -18.4039    1.3782    0.0000 H   0  0  0  0  0  0  0  0  0  0  0  0
  -19.4207   -1.4697    0.0000 H   0  0  0  0  0  0  0  0  0  0  0  0
  -17.6447   -1.6429    0.0000 H   0  0  0  0  0  0  0  0  0  0  0  0
  -20.8338    1.3413    0.0000 H   0  0  0  0  0  0  0  0  0  0  0  0
  -19.2352    1.6791    0.0000 H   0  0  0  0  0  0  0  0  0  0  0  0
  -17.8894   -2.8565    0.0000 H   0  0  0  0  0  0  0  0  0  0  0  0
  -15.0109   -6.2858    0.0000 H   0  0  0  0  0  0  0  0  0  0  0  0
  -16.0263   -5.5413    0.0000 H   0  0  0  0  0  0  0  0  0  0  0  0
  -13.7247   -7.2219    0.0000 H   0  0  0  0  0  0  0  0  0  0  0  0
  -14.6799   -6.6959    0.0000 H   0  0  0  0  0  0  0  0  0  0  0  0
  -12.1018   -7.9105    0.0000 H   0  0  0  0  0  0  0  0  0  0  0  0
  -13.2739   -7.4505    0.0000 H   0  0  0  0  0  0  0  0  0  0  0  0
  -10.3780   -8.2796    0.0000 H   0  0  0  0  0  0  0  0  0  0  0  0
  -11.6160   -8.0497    0.0000 H   0  0  0  0  0  0  0  0  0  0  0  0
   -8.6154   -8.3157    0.0000 H   0  0  0  0  0  0  0  0  0  0  0  0
   -9.8746   -8.3242    0.0000 H   0  0  0  0  0  0  0  0  0  0  0  0
   -6.7368   -7.9009    0.0000 H   0  0  0  0  0  0  0  0  0  0  0  0
   -8.1127   -8.2643    0.0000 H   0  0  0  0  0  0  0  0  0  0  0  0
   -5.7587   -7.7623    0.0000 H   0  0  0  0  0  0  0  0  0  0  0  0
  -18.1636   -4.9433    0.0000 H   0  0  0  0  0  0  0  0  0  0  0  0
  -18.6419   -3.3810    0.0000 H   0  0  0  0  0  0  0  0  0  0  0  0
  -17.4092   -2.3086    0.0000 H   0  0  0  0  0  0  0  0  0  0  0  0
  -18.8146   -4.2090    0.0000 H   0  0  0  0  0  0  0  0  0  0  0  0
  -16.8651   -6.9840    0.0000 H   0  0  0  0  0  0  0  0  0  0  0  0
  -17.9366   -9.5914    0.0000 H   0  0  0  0  0  0  0  0  0  0  0  0
  -16.9051   -7.9622    0.0000 H   0  0  0  0  0  0  0  0  0  0  0  0
  -21.2069   -9.0584    0.0000 H   0  0  0  0  0  0  0  0  0  0  0  0
  -20.7932   -7.8102    0.0000 H   0  0  0  0  0  0  0  0  0  0  0  0
  -21.1714  -12.5523    0.0000 H   0  0  0  0  0  0  0  0  0  0  0  0
  -22.5691  -10.6092    0.0000 H   0  0  0  0  0  0  0  0  0  0  0  0
  -19.7853   -9.6247    0.0000 H   0  0  0  0  0  0  0  0  0  0  0  0
  -21.6303   -6.9705    0.0000 H   0  0  0  0  0  0  0  0  0  0  0  0
  -24.7903   -8.5097    0.0000 H   0  0  0  0  0  0  0  0  0  0  0  0
  -23.5827   -9.6102    0.0000 H   0  0  0  0  0  0  0  0  0  0  0  0
  -23.7330   -5.2020    0.0000 H   0  0  0  0  0  0  0  0  0  0  0  0
  -22.3431   -6.3211    0.0000 H   0  0  0  0  0  0  0  0  0  0  0  0
  -26.7462   -6.5801    0.0000 H   0  0  0  0  0  0  0  0  0  0  0  0
  -25.5030   -7.8603    0.0000 H   0  0  0  0  0  0  0  0  0  0  0  0
  -24.7043   -3.8421    0.0000 H   0  0  0  0  0  0  0  0  0  0  0  0
  -29.1003   -2.8804    0.0000 H   0  0  0  0  0  0  0  0  0  0  0  0
  -26.6247   -2.0922    0.0000 H   0  0  0  0  0  0  0  0  0  0  0  0
  -29.6556   -5.4184    0.0000 H   0  0  0  0  0  0  0  0  0  0  0  0
  -27.7352   -7.1683    0.0000 H   0  0  0  0  0  0  0  0  0  0  0  0
  1  2  1  0
  2  3  1  0
  3  4  2  0
  4  5  1  0
  5  6  2  0
  6  7  1  0
  7  8  2  0
  7  9  1  0
  9 10  1  0
 10 11  1  0
 11 12  2  0
  9 13  1  0
 13 14  1  0
 14 15  2  0
 15 16  1  0
 16 17  2  0
 17 18  1  0
 16 19  1  0
 14 20  1  0
 20 21  1  0
 21 22  2  0
 22 23  1  0
 23 24  2  0
 24 25  1  0
 25 26  2  0
 25 27  1  0
  1 28  2  0
  1 29  1  0
 29 30  1  0
 30 31  1  0
 31 32  1  0
 32 33  2  0
 32 34  1  0
 34 35  1  0
 35 36  1  0
 36 37  1  0
 36 38  1  0
 35 39  1  0
 39 40  2  0
 39 41  1  0
 41 42  1  0
 42 43  1  0
 43 44  1  0
 44 45  1  0
 45 46  1  0
 46 47  1  0
 47 48  2  3
 47 49  1  0
 42 50  1  0
 50 51  2  0
 50 52  1  0
 52 53  1  0
 53 54  1  0
 54 55  1  0
 55 56  1  0
 56 57  1  0
 56 58  2  0
 53 59  1  0
 59 60  2  0
 59 61  1  0
 61 62  1  0
 62 63  1  0
 62 64  1  0
 64 65  2  0
 64 66  1  0
 66 67  1  0
 67 68  1  0
 68 69  1  0
 69 70  1  0
 70 71  1  0
 71 72  1  0
 72 73  2  3
 72 74  1  0
 67 75  1  0
 75 76  2  0
 75 77  1  0
 77 78  1  0
 78 79  1  0
 79 80  1  0
 80 81  1  0
 81 82  1  0
 82 83  1  0
 83 84  2  3
 83 85  1  0
 78 86  1  0
 86 87  2  0
 86 88  1  0
 88 89  1  0
 89 90  1  0
 90 91  1  0
 91 92  1  0
 91 93  2  0
 89 94  1  0
 94 95  2  0
 94 96  1  0
 97 96  1  6
 97 98  1  0
 98 99  1  0
 99100  1  0
100101  1  0
 97102  1  0
 97103  1  0
103104  2  0
103105  1  0
105106  1  0
106107  1  0
107108  1  0
108109  1  0
109110  1  0
110111  1  0
111112  2  3
111113  1  0
106114  1  0
114115  2  0
114116  1  0
116117  1  0
117118  1  0
118119  1  0
119120  1  0
120121  1  0
121122  1  0
122123  2  3
122124  1  0
117125  1  0
125126  2  0
125127  1  0
127128  1  0
128129  1  0
129130  1  0
130131  1  0
131132  1  0
132133  1  0
133134  2  3
133135  1  0
128136  1  0
136137  2  0
136138  1  0
138139  1  0
139140  1  0
140141  1  0
141142  2  0
142143  1  0
143144  1  0
144145  2  0
145146  1  0
146147  2  0
147148  1  0
148149  2  0
139150  1  0
150151  2  0
150152  1  0
152153  1  0
153154  1  0
154155  1  0
155156  1  0
156157  1  0
157158  1  0
158159  2  3
158160  1  0
153161  1  0
161162  2  0
161163  1  0
163164  1  0
164165  1  0
165166  1  0
166167  1  0
167168  2  0
167169  1  0
164170  1  0
170171  2  0
170172  1  0
172173  1  0
173174  1  0
174175  1  0
175176  1  0
176177  1  0
177178  1  0
178179  1  0
179180  1  0
173181  1  0
173182  1  1
182183  2  0
182184  1  0
184185  1  0
185186  1  0
186187  1  0
187188  1  0
188189  1  0
188190  2  0
185191  1  0
191192  2  0
191193  1  0
193194  1  0
194195  1  0
195196  1  0
196197  1  0
197198  1  0
198199  1  0
199200  2  3
199201  1  0
194202  1  0
202203  2  0
202204  1  0
  8  3  1  0
149141  1  0
 11  6  1  0
149144  1  0
 18 13  2  0
101180  2  0
 22  9  1  0
 26 21  1  0
  2205  1  0
  4206  1  0
  5207  1  0
  8208  1  0
 15209  1  0
 17210  1  0
 18211  1  0
 19212  1  0
 23213  1  0
 24214  1  0
 26215  1  0
 27216  1  0
 29217  1  0
 30218  1  0
 30219  1  0
 31220  1  0
 31221  1  0
 34222  1  0
 35223  1  1
 36224  1  6
 37225  1  0
 38226  1  0
 38227  1  0
 38228  1  0
 41229  1  0
 42230  1  1
 43231  1  0
 43232  1  0
 44233  1  0
 44234  1  0
 45235  1  0
 45236  1  0
 46237  1  0
 48238  1  0
 48239  1  0
 49240  1  0
 49241  1  0
 52242  1  0
 53243  1  1
 54244  1  0
 54245  1  0
 55246  1  0
 55247  1  0
 57248  1  0
 57249  1  0
 61250  1  0
 62251  1  1
 63252  1  0
 63253  1  0
 63254  1  0
 66255  1  0
 67256  1  1
 68257  1  0
 68258  1  0
 69259  1  0
 69260  1  0
 70261  1  0
 70262  1  0
 71263  1  0
 73264  1  0
 73265  1  0
 74266  1  0
 74267  1  0
 77268  1  0
 78269  1  1
 79270  1  0
 79271  1  0
 80272  1  0
 80273  1  0
 81274  1  0
 81275  1  0
 82276  1  0
 84277  1  0
 84278  1  0
 85279  1  0
 85280  1  0
 88281  1  0
 89282  1  1
 90283  1  0
 90284  1  0
 92285  1  0
 92286  1  0
 96287  1  0
 98288  1  0
 98289  1  0
 99290  1  0
 99291  1  0
100292  1  0
100293  1  0
101294  1  0
102295  1  0
102296  1  0
102297  1  0
105298  1  0
106299  1  6
107300  1  0
107301  1  0
108302  1  0
108303  1  0
109304  1  0
109305  1  0
110306  1  0
112307  1  0
112308  1  0
113309  1  0
113310  1  0
116311  1  0
117312  1  6
118313  1  0
118314  1  0
119315  1  0
119316  1  0
120317  1  0
120318  1  0
121319  1  0
123320  1  0
123321  1  0
124322  1  0
124323  1  0
127324  1  0
128325  1  6
129326  1  0
129327  1  0
130328  1  0
130329  1  0
131330  1  0
131331  1  0
132332  1  0
134333  1  0
134334  1  0
135335  1  0
135336  1  0
138337  1  0
139338  1  6
140339  1  0
140340  1  0
142341  1  0
143342  1  0
145343  1  0
146344  1  0
147345  1  0
148346  1  0
152347  1  0
153348  1  6
154349  1  0
154350  1  0
155351  1  0
155352  1  0
156353  1  0
156354  1  0
157355  1  0
159356  1  0
159357  1  0
160358  1  0
160359  1  0
163360  1  0
164361  1  6
165362  1  0
165363  1  0
166364  1  0
166365  1  0
172366  1  0
174367  1  0
174368  1  0
175369  1  0
175370  1  0
176371  1  0
176372  1  0
177373  1  0
177374  1  0
178375  1  0
178376  1  0
179377  1  0
179378  1  0
180379  1  0
181380  1  0
181381  1  0
181382  1  0
184383  1  0
185384  1  1
186385  1  0
186386  1  0
187387  1  0
187388  1  0
189389  1  0
189390  1  0
193391  1  0
194392  1  6
195393  1  0
195394  1  0
196395  1  0
196396  1  0
197397  1  0
197398  1  0
198399  1  0
200400  1  0
200401  1  0
201402  1  0
201403  1  0
M  CHG  8  48   1  73   1  84   1 112   1 123   1 134   1 159   1 169  -1
M  CHG  2 200   1 204  -1
M  END
