
     RDKit          2D

317323  0  0  0  0  0  0  0  0999 V2000
   16.1283   -2.3821    0.0000 C   0  0  0  0  0  0  0  0  0  0  0  0
   17.4505   -3.0905    0.0000 N   0  0  0  0  0  0  0  0  0  0  0  0
   17.4980   -4.5898    0.0000 C   0  0  0  0  0  0  0  0  0  0  0  0
   16.2234   -5.3806    0.0000 C   0  0  0  0  0  0  0  0  0  0  0  0
   16.2709   -6.8798    0.0000 C   0  0  0  0  0  0  0  0  0  0  0  0
   17.5930   -7.5883    0.0000 C   0  0  0  0  0  0  0  0  0  0  0  0
   18.8676   -6.7975    0.0000 C   0  0  0  0  0  0  0  0  0  0  0  0
   18.8201   -5.2983    0.0000 C   0  0  0  0  0  0  0  0  0  0  0  0
   20.0136   -7.7654    0.0000 C   0  0  0  0  0  0  0  0  0  0  0  0
   19.4472   -9.1544    0.0000 O   0  0  0  0  0  0  0  0  0  0  0  0
   17.9512   -9.0449    0.0000 C   0  0  0  0  0  0  0  0  0  0  0  0
   16.9833  -10.1908    0.0000 O   0  0  0  0  0  0  0  0  0  0  0  0
   21.0521   -8.8478    0.0000 C   0  0  0  0  0  0  0  0  0  0  0  0
   22.5087   -8.4896    0.0000 C   0  0  0  0  0  0  0  0  0  0  0  0
   23.5472   -9.5719    0.0000 C   0  0  0  0  0  0  0  0  0  0  0  0
   23.1291  -11.0125    0.0000 C   0  0  0  0  0  0  0  0  0  0  0  0
   21.6725  -11.3707    0.0000 C   0  0  0  0  0  0  0  0  0  0  0  0
   20.6340  -10.2883    0.0000 C   0  0  0  0  0  0  0  0  0  0  0  0
   24.1676  -12.0949    0.0000 O   0  0  0  0  0  0  0  0  0  0  0  0
   22.9268   -7.0490    0.0000 O   0  0  0  0  0  0  0  0  0  0  0  0
   21.8883   -5.9667    0.0000 C   0  0  0  0  0  0  0  0  0  0  0  0
   20.4317   -6.3248    0.0000 C   0  0  0  0  0  0  0  0  0  0  0  0
   20.0730   -5.0753    0.0000 C   0  0  0  0  0  0  0  0  0  0  0  0
   20.2959   -4.3070    0.0000 C   0  0  0  0  0  0  0  0  0  0  0  0
   21.0728   -4.1160    0.0000 C   0  0  0  0  0  0  0  0  0  0  0  0
   21.6267   -4.6933    0.0000 C   0  0  0  0  0  0  0  0  0  0  0  0
   21.6860   -2.0032    0.0000 O   0  0  0  0  0  0  0  0  0  0  0  0
   14.8537   -3.1728    0.0000 S   0  0  0  0  0  0  0  0  0  0  0  0
   16.0808   -0.8828    0.0000 N   0  0  0  0  0  0  0  0  0  0  0  0
   14.7587   -0.1743    0.0000 C   0  0  0  0  0  0  0  0  0  0  0  0
   14.7112    1.3249    0.0000 C   0  0  0  0  0  0  0  0  0  0  0  0
   13.3890    2.0334    0.0000 C   0  0  0  0  0  0  0  0  0  0  0  0
   12.4825    0.8383    0.0000 O   0  0  0  0  0  0  0  0  0  0  0  0
   13.3415    3.5326    0.0000 N   0  0  0  0  0  0  0  0  0  0  0  0
   12.0194    4.2411    0.0000 C   0  0  0  0  0  0  0  0  0  0  0  0
   11.9174    2.7446    0.0000 C   0  0  0  0  0  0  0  0  0  0  0  0
   11.3788    1.3446    0.0000 C   0  0  0  0  0  0  0  0  0  0  0  0
   10.4515    0.1656    0.0000 C   0  0  0  0  0  0  0  0  0  0  0  0
    9.2179   -0.6878    0.0000 C   0  0  0  0  0  0  0  0  0  0  0  0
   13.2089    5.1549    0.0000 C   0  0  0  0  0  0  0  0  0  0  0  0
   11.6757    5.7012    0.0000 C   0  0  0  0  0  0  0  0  0  0  0  0
   13.0683    6.2586    0.0000 O   0  0  0  0  0  0  0  0  0  0  0  0
   10.9170    6.9952    0.0000 N   0  0  0  0  0  0  0  0  0  0  0  0
    9.8105    8.0080    0.0000 C   0  0  0  0  0  0  0  0  0  0  0  0
    8.4547    8.6497    0.0000 C   0  0  0  0  0  0  0  0  0  0  0  0
    8.8872   10.0860    0.0000 O   0  0  0  0  0  0  0  0  0  0  0  0
    6.9700    8.8632    0.0000 N   0  0  0  0  0  0  0  0  0  0  0  0
    5.4883    8.6297    0.0000 C   0  0  0  0  0  0  0  0  0  0  0  0
    4.3328    9.5861    0.0000 C   0  0  0  0  0  0  0  0  0  0  0  0
    4.5833   11.0650    0.0000 C   0  0  0  0  0  0  0  0  0  0  0  0
    3.4277   12.0214    0.0000 C   0  0  0  0  0  0  0  0  0  0  0  0
    3.6782   13.5003    0.0000 N   0  0  0  0  0  0  0  0  0  0  0  0
    2.5227   14.4567    0.0000 C   0  0  0  0  0  0  0  0  0  0  0  0
    2.7732   15.9357    0.0000 N   0  0  0  0  0  0  0  0  0  0  0  0
    1.1166   13.9342    0.0000 N   0  0  0  0  0  0  0  0  0  0  0  0
    4.1413    7.9697    0.0000 C   0  0  0  0  0  0  0  0  0  0  0  0
    3.2880    9.2034    0.0000 O   0  0  0  0  0  0  0  0  0  0  0  0
    3.0486    6.9421    0.0000 N   0  0  0  0  0  0  0  0  0  0  0  0
    2.3074    5.6380    0.0000 C   0  0  0  0  0  0  0  0  0  0  0  0
    0.8392    5.3309    0.0000 C   0  0  0  0  0  0  0  0  0  0  0  0
   -0.1609    6.4488    0.0000 C   0  0  0  0  0  0  0  0  0  0  0  0
   -1.6291    6.1417    0.0000 C   0  0  0  0  0  0  0  0  0  0  0  0
   -2.6292    7.2596    0.0000 C   0  0  0  0  0  0  0  0  0  0  0  0
   -4.1281    7.3169    0.0000 N   0  0  0  0  0  0  0  0  0  0  0  0
    1.9835    4.1734    0.0000 C   0  0  0  0  0  0  0  0  0  0  0  0
    1.1801    4.5464    0.0000 O   0  0  0  0  0  0  0  0  0  0  0  0
    2.1057    2.6784    0.0000 N   0  0  0  0  0  0  0  0  0  0  0  0
    2.6631    1.2858    0.0000 C   0  0  0  0  0  0  0  0  0  0  0  0
    3.6062    0.1194    0.0000 C   0  0  0  0  0  0  0  0  0  0  0  0
    4.8512   -0.7172    0.0000 C   0  0  0  0  0  0  0  0  0  0  0  0
    6.2876   -1.1497    0.0000 C   0  0  0  0  0  0  0  0  0  0  0  0
    7.7875   -1.1395    0.0000 C   0  0  0  0  0  0  0  0  0  0  0  0
    2.6355   -0.3078    0.0000 C   0  0  0  0  0  0  0  0  0  0  0  0
    2.9667   -1.6340    0.0000 C   0  0  0  0  0  0  0  0  0  0  0  0
    3.0409   -2.9989    0.0000 C   0  0  0  0  0  0  0  0  0  0  0  0
    2.8555   -4.3532    0.0000 C   0  0  0  0  0  0  0  0  0  0  0  0
    1.2589    2.0398    0.0000 C   0  0  0  0  0  0  0  0  0  0  0  0
    2.9117    3.4917    0.0000 O   0  0  0  0  0  0  0  0  0  0  0  0
    0.2632    2.9764    0.0000 N   0  0  0  0  0  0  0  0  0  0  0  0
   -0.8917    3.7076    0.0000 C   0  0  0  0  0  0  0  0  0  0  0  0
   -0.7041    5.8264    0.0000 C   0  0  0  0  0  0  0  0  0  0  0  0
   -2.0628    6.4619    0.0000 C   0  0  0  0  0  0  0  0  0  0  0  0
   -2.1917    7.9564    0.0000 C   0  0  0  0  0  0  0  0  0  0  0  0
   -3.5504    8.5919    0.0000 N   0  0  0  0  0  0  0  0  0  0  0  0
   -3.6794   10.0864    0.0000 C   0  0  0  0  0  0  0  0  0  0  0  0
   -4.8440   11.0318    0.0000 N   0  0  0  0  0  0  0  0  0  0  0  0
   -2.4497   10.9453    0.0000 N   0  0  0  0  0  0  0  0  0  0  0  0
   -2.1641    4.2071    0.0000 C   0  0  0  0  0  0  0  0  0  0  0  0
   -2.2840    6.3471    0.0000 O   0  0  0  0  0  0  0  0  0  0  0  0
   -3.5080    4.4567    0.0000 N   0  0  0  0  0  0  0  0  0  0  0  0
   -4.8749    4.4475    0.0000 C   0  0  0  0  0  0  0  0  0  0  0  0
   -5.8626    6.3313    0.0000 C   0  0  0  0  0  0  0  0  0  0  0  0
   -5.2924    7.7188    0.0000 C   0  0  0  0  0  0  0  0  0  0  0  0
   -6.2089    8.9062    0.0000 C   0  0  0  0  0  0  0  0  0  0  0  0
   -5.6387   10.2937    0.0000 N   0  0  0  0  0  0  0  0  0  0  0  0
   -6.5551   11.4811    0.0000 C   0  0  0  0  0  0  0  0  0  0  0  0
   -5.9850   12.8685    0.0000 N   0  0  0  0  0  0  0  0  0  0  0  0
   -8.0417   11.2812    0.0000 N   0  0  0  0  0  0  0  0  0  0  0  0
   -6.2153    4.1798    0.0000 C   0  0  0  0  0  0  0  0  0  0  0  0
   -7.0212    6.2230    0.0000 O   0  0  0  0  0  0  0  0  0  0  0  0
   -7.4809    3.6632    0.0000 N   0  0  0  0  0  0  0  0  0  0  0  0
   -8.6258    2.9164    0.0000 C   0  0  0  0  0  0  0  0  0  0  0  0
  -10.4752    3.9672    0.0000 C   0  0  0  0  0  0  0  0  0  0  0  0
  -10.7456    5.4426    0.0000 C   0  0  0  0  0  0  0  0  0  0  0  0
  -12.1586    5.9462    0.0000 C   0  0  0  0  0  0  0  0  0  0  0  0
  -12.4290    7.4216    0.0000 N   0  0  0  0  0  0  0  0  0  0  0  0
  -13.3011    4.9742    0.0000 O   0  0  0  0  0  0  0  0  0  0  0  0
   -9.6087    1.9665    0.0000 C   0  0  0  0  0  0  0  0  0  0  0  0
  -11.3913    3.2497    0.0000 O   0  0  0  0  0  0  0  0  0  0  0  0
  -10.3941    0.8477    0.0000 N   0  0  0  0  0  0  0  0  0  0  0  0
  -10.9535   -0.3995    0.0000 C   0  0  0  0  0  0  0  0  0  0  0  0
  -13.0774   -0.5154    0.0000 C   0  0  0  0  0  0  0  0  0  0  0  0
  -14.1026    0.5796    0.0000 C   0  0  0  0  0  0  0  0  0  0  0  0
  -15.5635    0.2393    0.0000 C   0  0  0  0  0  0  0  0  0  0  0  0
  -16.5886    1.3343    0.0000 N   0  0  0  0  0  0  0  0  0  0  0  0
  -18.0495    0.9940    0.0000 C   0  0  0  0  0  0  0  0  0  0  0  0
  -19.0747    2.0890    0.0000 N   0  0  0  0  0  0  0  0  0  0  0  0
  -18.4852   -0.4414    0.0000 N   0  0  0  0  0  0  0  0  0  0  0  0
  -11.2668   -1.7300    0.0000 C   0  0  0  0  0  0  0  0  0  0  0  0
  -13.4602   -1.6143    0.0000 O   0  0  0  0  0  0  0  0  0  0  0  0
  -11.3226   -3.0958    0.0000 N   0  0  0  0  0  0  0  0  0  0  0  0
  -11.1190   -4.4475    0.0000 C   0  0  0  0  0  0  0  0  0  0  0  0
  -12.8431   -5.6932    0.0000 C   0  0  0  0  0  0  0  0  0  0  0  0
  -14.2975   -5.3263    0.0000 C   0  0  0  0  0  0  0  0  0  0  0  0
  -15.3425   -6.4024    0.0000 C   0  0  0  0  0  0  0  0  0  0  0  0
  -16.7969   -6.0355    0.0000 N   0  0  0  0  0  0  0  0  0  0  0  0
  -17.8419   -7.1116    0.0000 C   0  0  0  0  0  0  0  0  0  0  0  0
  -19.2963   -6.7447    0.0000 N   0  0  0  0  0  0  0  0  0  0  0  0
  -17.4324   -8.5547    0.0000 N   0  0  0  0  0  0  0  0  0  0  0  0
  -10.6632   -5.7362    0.0000 C   0  0  0  0  0  0  0  0  0  0  0  0
  -12.5709   -6.8247    0.0000 O   0  0  0  0  0  0  0  0  0  0  0  0
   -9.9717   -6.9153    0.0000 N   0  0  0  0  0  0  0  0  0  0  0  0
   -9.0697   -7.9423    0.0000 C   0  0  0  0  0  0  0  0  0  0  0  0
   -9.8466   -9.9224    0.0000 C   0  0  0  0  0  0  0  0  0  0  0  0
  -11.2685  -10.4001    0.0000 C   0  0  0  0  0  0  0  0  0  0  0  0
  -11.5658  -11.8703    0.0000 C   0  0  0  0  0  0  0  0  0  0  0  0
  -12.9877  -12.3480    0.0000 N   0  0  0  0  0  0  0  0  0  0  0  0
  -13.2850  -13.8182    0.0000 C   0  0  0  0  0  0  0  0  0  0  0  0
  -14.7069  -14.2959    0.0000 N   0  0  0  0  0  0  0  0  0  0  0  0
  -12.1604  -14.8108    0.0000 N   0  0  0  0  0  0  0  0  0  0  0  0
   -7.9895   -8.7800    0.0000 C   0  0  0  0  0  0  0  0  0  0  0  0
   -9.0059  -10.7271    0.0000 O   0  0  0  0  0  0  0  0  0  0  0  0
   -6.7703   -9.3982    0.0000 N   0  0  0  0  0  0  0  0  0  0  0  0
   -5.4562   -9.7744    0.0000 C   0  0  0  0  0  0  0  0  0  0  0  0
   -4.0946   -9.8952    0.0000 C   0  0  0  0  0  0  0  0  0  0  0  0
   -2.7348   -9.7561    0.0000 C   0  0  0  0  0  0  0  0  0  0  0  0
   -1.4259   -9.3621    0.0000 C   0  0  0  0  0  0  0  0  0  0  0  0
   -0.2152   -8.7276    0.0000 C   0  0  0  0  0  0  0  0  0  0  0  0
    0.8536   -7.8754    0.0000 C   0  0  0  0  0  0  0  0  0  0  0  0
    1.7417   -6.8363    0.0000 C   0  0  0  0  0  0  0  0  0  0  0  0
    2.4172   -5.6479    0.0000 C   0  0  0  0  0  0  0  0  0  0  0  0
   -6.5944  -11.5714    0.0000 C   0  0  0  0  0  0  0  0  0  0  0  0
   -5.0393  -11.8602    0.0000 C   0  0  0  0  0  0  0  0  0  0  0  0
   -5.8276  -13.1364    0.0000 O   0  0  0  0  0  0  0  0  0  0  0  0
   -3.6556  -12.4393    0.0000 O   0  0  0  0  0  0  0  0  0  0  0  0
   18.6192   -2.1503    0.0000 H   0  0  0  0  0  0  0  0  0  0  0  0
   14.9012   -4.6721    0.0000 H   0  0  0  0  0  0  0  0  0  0  0  0
   14.9962   -7.6706    0.0000 H   0  0  0  0  0  0  0  0  0  0  0  0
   19.8655   -4.2226    0.0000 H   0  0  0  0  0  0  0  0  0  0  0  0
   25.0038   -9.2138    0.0000 H   0  0  0  0  0  0  0  0  0  0  0  0
   21.2544  -12.8112    0.0000 H   0  0  0  0  0  0  0  0  0  0  0  0
   19.1774  -10.6465    0.0000 H   0  0  0  0  0  0  0  0  0  0  0  0
   23.7495  -13.5354    0.0000 H   0  0  0  0  0  0  0  0  0  0  0  0
   17.9366   -5.6007    0.0000 H   0  0  0  0  0  0  0  0  0  0  0  0
   18.9125   -2.6010    0.0000 H   0  0  0  0  0  0  0  0  0  0  0  0
   23.7630   -4.1679    0.0000 H   0  0  0  0  0  0  0  0  0  0  0  0
   23.1426   -1.6450    0.0000 H   0  0  0  0  0  0  0  0  0  0  0  0
   17.3555   -0.0921    0.0000 H   0  0  0  0  0  0  0  0  0  0  0  0
   14.2906   -1.5994    0.0000 H   0  0  0  0  0  0  0  0  0  0  0  0
   13.2740    0.0392    0.0000 H   0  0  0  0  0  0  0  0  0  0  0  0
   16.1959    1.1114    0.0000 H   0  0  0  0  0  0  0  0  0  0  0  0
   15.1793    2.7500    0.0000 H   0  0  0  0  0  0  0  0  0  0  0  0
   14.7030    4.1621    0.0000 H   0  0  0  0  0  0  0  0  0  0  0  0
   13.4081    2.9113    0.0000 H   0  0  0  0  0  0  0  0  0  0  0  0
   12.8341    1.5573    0.0000 H   0  0  0  0  0  0  0  0  0  0  0  0
   12.7409    0.7163    0.0000 H   0  0  0  0  0  0  0  0  0  0  0  0
   12.2291    0.1089    0.0000 H   0  0  0  0  0  0  0  0  0  0  0  0
   11.8528   -0.3696    0.0000 H   0  0  0  0  0  0  0  0  0  0  0  0
   10.7219   -1.3099    0.0000 H   0  0  0  0  0  0  0  0  0  0  0  0
    9.8778   -2.0348    0.0000 H   0  0  0  0  0  0  0  0  0  0  0  0
   14.6546    4.7548    0.0000 H   0  0  0  0  0  0  0  0  0  0  0  0
   14.0142    6.4204    0.0000 H   0  0  0  0  0  0  0  0  0  0  0  0
   12.3805    6.4053    0.0000 H   0  0  0  0  0  0  0  0  0  0  0  0
   12.0834    7.9383    0.0000 H   0  0  0  0  0  0  0  0  0  0  0  0
    9.8378    9.5077    0.0000 H   0  0  0  0  0  0  0  0  0  0  0  0
   11.1888    8.5999    0.0000 H   0  0  0  0  0  0  0  0  0  0  0  0
    6.9599   10.3632    0.0000 H   0  0  0  0  0  0  0  0  0  0  0  0
    6.0582   10.0172    0.0000 H   0  0  0  0  0  0  0  0  0  0  0  0
    2.8690    9.9136    0.0000 H   0  0  0  0  0  0  0  0  0  0  0  0
    3.2980    8.5001    0.0000 H   0  0  0  0  0  0  0  0  0  0  0  0
    5.3245   12.3691    0.0000 H   0  0  0  0  0  0  0  0  0  0  0  0
    6.0471   10.7375    0.0000 H   0  0  0  0  0  0  0  0  0  0  0  0
    2.0147   12.5249    0.0000 H   0  0  0  0  0  0  0  0  0  0  0  0
    2.5331   10.8174    0.0000 H   0  0  0  0  0  0  0  0  0  0  0  0
    5.0843   14.0229    0.0000 H   0  0  0  0  0  0  0  0  0  0  0  0
    1.6176   16.8921    0.0000 H   0  0  0  0  0  0  0  0  0  0  0  0
    4.1792   16.4582    0.0000 H   0  0  0  0  0  0  0  0  0  0  0  0
   -0.0389   14.8906    0.0000 H   0  0  0  0  0  0  0  0  0  0  0  0
    0.8661   12.4553    0.0000 H   0  0  0  0  0  0  0  0  0  0  0  0
    1.8696    7.8694    0.0000 H   0  0  0  0  0  0  0  0  0  0  0  0
    1.5779    6.9487    0.0000 H   0  0  0  0  0  0  0  0  0  0  0  0
   -0.5223    4.7014    0.0000 H   0  0  0  0  0  0  0  0  0  0  0  0
    0.8604    3.8310    0.0000 H   0  0  0  0  0  0  0  0  0  0  0  0
   -0.1821    7.9487    0.0000 H   0  0  0  0  0  0  0  0  0  0  0  0
    1.0078    7.3891    0.0000 H   0  0  0  0  0  0  0  0  0  0  0  0
   -2.9038    5.3509    0.0000 H   0  0  0  0  0  0  0  0  0  0  0  0
   -1.6079    4.6418    0.0000 H   0  0  0  0  0  0  0  0  0  0  0  0
   -3.5071    8.4760    0.0000 H   0  0  0  0  0  0  0  0  0  0  0  0
   -1.3546    8.0504    0.0000 H   0  0  0  0  0  0  0  0  0  0  0  0
   -4.9319    8.1886    0.0000 H   0  0  0  0  0  0  0  0  0  0  0  0
   -5.5256    6.4937    0.0000 H   0  0  0  0  0  0  0  0  0  0  0  0
   -4.0762    5.4527    0.0000 H   0  0  0  0  0  0  0  0  0  0  0  0
    0.6456    2.3347    0.0000 H   0  0  0  0  0  0  0  0  0  0  0  0
    3.5379   -1.3791    0.0000 H   0  0  0  0  0  0  0  0  0  0  0  0
    2.1551   -0.2606    0.0000 H   0  0  0  0  0  0  0  0  0  0  0  0
    5.2276   -2.1692    0.0000 H   0  0  0  0  0  0  0  0  0  0  0  0
    3.9448   -1.9123    0.0000 H   0  0  0  0  0  0  0  0  0  0  0  0
    6.9137   -2.5127    0.0000 H   0  0  0  0  0  0  0  0  0  0  0  0
    5.7736   -2.5589    0.0000 H   0  0  0  0  0  0  0  0  0  0  0  0
    8.0211   -2.6213    0.0000 H   0  0  0  0  0  0  0  0  0  0  0  0
    4.2334    1.0962    0.0000 H   0  0  0  0  0  0  0  0  0  0  0  0
    4.7107   -0.5712    0.0000 H   0  0  0  0  0  0  0  0  0  0  0  0
    5.0739   -1.0319    0.0000 H   0  0  0  0  0  0  0  0  0  0  0  0
    4.9546   -2.2854    0.0000 H   0  0  0  0  0  0  0  0  0  0  0  0
    5.2240   -2.8065    0.0000 H   0  0  0  0  0  0  0  0  0  0  0  0
    4.9816   -3.8697    0.0000 H   0  0  0  0  0  0  0  0  0  0  0  0
    4.9970   -4.8574    0.0000 H   0  0  0  0  0  0  0  0  0  0  0  0
    1.4601    4.8181    0.0000 H   0  0  0  0  0  0  0  0  0  0  0  0
    0.4800    5.3981    0.0000 H   0  0  0  0  0  0  0  0  0  0  0  0
   -0.3141    7.2748    0.0000 H   0  0  0  0  0  0  0  0  0  0  0  0
    0.7628    5.5128    0.0000 H   0  0  0  0  0  0  0  0  0  0  0  0
   -3.5569    6.5945    0.0000 H   0  0  0  0  0  0  0  0  0  0  0  0
   -2.9460    5.2495    0.0000 H   0  0  0  0  0  0  0  0  0  0  0  0
   -1.8018    9.4048    0.0000 H   0  0  0  0  0  0  0  0  0  0  0  0
   -0.7494    8.3683    0.0000 H   0  0  0  0  0  0  0  0  0  0  0  0
   -5.0063    8.2309    0.0000 H   0  0  0  0  0  0  0  0  0  0  0  0
   -5.1671   12.2164    0.0000 H   0  0  0  0  0  0  0  0  0  0  0  0
   -6.5084   10.2423    0.0000 H   0  0  0  0  0  0  0  0  0  0  0  0
   -2.5786   12.4397    0.0000 H   0  0  0  0  0  0  0  0  0  0  0  0
   -1.0909   10.3097    0.0000 H   0  0  0  0  0  0  0  0  0  0  0  0
   -3.4968    6.6531    0.0000 H   0  0  0  0  0  0  0  0  0  0  0  0
   -4.4584    6.5623    0.0000 H   0  0  0  0  0  0  0  0  0  0  0  0
   -7.1299    7.1338    0.0000 H   0  0  0  0  0  0  0  0  0  0  0  0
   -7.1111    5.5000    0.0000 H   0  0  0  0  0  0  0  0  0  0  0  0
   -4.5804    9.0390    0.0000 H   0  0  0  0  0  0  0  0  0  0  0  0
   -4.0251    6.9163    0.0000 H   0  0  0  0  0  0  0  0  0  0  0  0
   -7.4762    9.7087    0.0000 H   0  0  0  0  0  0  0  0  0  0  0  0
   -7.3468    7.9289    0.0000 H   0  0  0  0  0  0  0  0  0  0  0  0
   -4.2446   10.8474    0.0000 H   0  0  0  0  0  0  0  0  0  0  0  0
   -6.9014   14.0560    0.0000 H   0  0  0  0  0  0  0  0  0  0  0  0
   -4.4983   13.0685    0.0000 H   0  0  0  0  0  0  0  0  0  0  0  0
   -8.9582   12.4687    0.0000 H   0  0  0  0  0  0  0  0  0  0  0  0
   -8.6119    9.8938    0.0000 H   0  0  0  0  0  0  0  0  0  0  0  0
   -8.3350    5.6867    0.0000 H   0  0  0  0  0  0  0  0  0  0  0  0
   -9.0556    4.9637    0.0000 H   0  0  0  0  0  0  0  0  0  0  0  0
  -11.9652    4.1400    0.0000 H   0  0  0  0  0  0  0  0  0  0  0  0
  -11.0761    2.5929    0.0000 H   0  0  0  0  0  0  0  0  0  0  0  0
  -10.4951    6.9216    0.0000 H   0  0  0  0  0  0  0  0  0  0  0  0
   -9.2927    5.8154    0.0000 H   0  0  0  0  0  0  0  0  0  0  0  0
  -13.8420    7.9251    0.0000 H   0  0  0  0  0  0  0  0  0  0  0  0
  -11.2865    8.3935    0.0000 H   0  0  0  0  0  0  0  0  0  0  0  0
  -12.2066    2.0882    0.0000 H   0  0  0  0  0  0  0  0  0  0  0  0
  -12.4219    1.0904    0.0000 H   0  0  0  0  0  0  0  0  0  0  0  0
  -14.3338   -1.3348    0.0000 H   0  0  0  0  0  0  0  0  0  0  0  0
  -12.8399   -1.9964    0.0000 H   0  0  0  0  0  0  0  0  0  0  0  0
  -14.6914    1.9592    0.0000 H   0  0  0  0  0  0  0  0  0  0  0  0
  -13.0818    1.6788    0.0000 H   0  0  0  0  0  0  0  0  0  0  0  0
  -16.8198   -0.5801    0.0000 H   0  0  0  0  0  0  0  0  0  0  0  0
  -15.1472   -1.2018    0.0000 H   0  0  0  0  0  0  0  0  0  0  0  0
  -16.1529    2.7696    0.0000 H   0  0  0  0  0  0  0  0  0  0  0  0
  -20.5356    1.7486    0.0000 H   0  0  0  0  0  0  0  0  0  0  0  0
  -18.6390    3.5243    0.0000 H   0  0  0  0  0  0  0  0  0  0  0  0
  -19.9461   -0.7817    0.0000 H   0  0  0  0  0  0  0  0  0  0  0  0
  -17.4601   -1.5363    0.0000 H   0  0  0  0  0  0  0  0  0  0  0  0
  -13.5181   -3.0321    0.0000 H   0  0  0  0  0  0  0  0  0  0  0  0
  -13.1598   -3.9880    0.0000 H   0  0  0  0  0  0  0  0  0  0  0  0
  -13.4570   -7.0618    0.0000 H   0  0  0  0  0  0  0  0  0  0  0  0
  -11.8425   -6.8108    0.0000 H   0  0  0  0  0  0  0  0  0  0  0  0
  -15.5387   -4.4841    0.0000 H   0  0  0  0  0  0  0  0  0  0  0  0
  -14.0330   -3.8498    0.0000 H   0  0  0  0  0  0  0  0  0  0  0  0
  -15.9564   -7.7710    0.0000 H   0  0  0  0  0  0  0  0  0  0  0  0
  -14.2132   -7.3897    0.0000 H   0  0  0  0  0  0  0  0  0  0  0  0
  -17.2064   -4.5925    0.0000 H   0  0  0  0  0  0  0  0  0  0  0  0
  -20.3413   -7.8208    0.0000 H   0  0  0  0  0  0  0  0  0  0  0  0
  -19.7058   -5.3017    0.0000 H   0  0  0  0  0  0  0  0  0  0  0  0
  -18.4774   -9.6308    0.0000 H   0  0  0  0  0  0  0  0  0  0  0  0
  -15.9780   -8.9216    0.0000 H   0  0  0  0  0  0  0  0  0  0  0  0
  -11.8532   -8.0488    0.0000 H   0  0  0  0  0  0  0  0  0  0  0  0
  -11.0349   -8.6591    0.0000 H   0  0  0  0  0  0  0  0  0  0  0  0
   -9.6231  -11.4057    0.0000 H   0  0  0  0  0  0  0  0  0  0  0  0
   -8.4007  -10.3216    0.0000 H   0  0  0  0  0  0  0  0  0  0  0  0
  -12.7680  -10.3626    0.0000 H   0  0  0  0  0  0  0  0  0  0  0  0
  -11.8442   -9.0150    0.0000 H   0  0  0  0  0  0  0  0  0  0  0  0
  -11.3423  -13.3536    0.0000 H   0  0  0  0  0  0  0  0  0  0  0  0
  -10.0820  -12.0903    0.0000 H   0  0  0  0  0  0  0  0  0  0  0  0
  -14.1123  -11.3554    0.0000 H   0  0  0  0  0  0  0  0  0  0  0  0
  -15.0042  -15.7661    0.0000 H   0  0  0  0  0  0  0  0  0  0  0  0
  -15.8315  -13.3033    0.0000 H   0  0  0  0  0  0  0  0  0  0  0  0
  -12.4577  -16.2811    0.0000 H   0  0  0  0  0  0  0  0  0  0  0  0
  -10.7385  -14.3332    0.0000 H   0  0  0  0  0  0  0  0  0  0  0  0
   -7.7403  -11.3688    0.0000 H   0  0  0  0  0  0  0  0  0  0  0  0
   -3.2905  -11.8644    0.0000 H   0  0  0  0  0  0  0  0  0  0  0  0
   -4.5392  -12.0263    0.0000 H   0  0  0  0  0  0  0  0  0  0  0  0
   -1.7137  -11.6543    0.0000 H   0  0  0  0  0  0  0  0  0  0  0  0
   -2.7680  -11.9328    0.0000 H   0  0  0  0  0  0  0  0  0  0  0  0
   -0.0639  -11.0328    0.0000 H   0  0  0  0  0  0  0  0  0  0  0  0
   -1.2297  -11.5086    0.0000 H   0  0  0  0  0  0  0  0  0  0  0  0
    1.4383  -10.1103    0.0000 H   0  0  0  0  0  0  0  0  0  0  0  0
    0.3837  -10.7982    0.0000 H   0  0  0  0  0  0  0  0  0  0  0  0
    2.7389   -8.9202    0.0000 H   0  0  0  0  0  0  0  0  0  0  0  0
    1.8335   -9.7952    0.0000 H   0  0  0  0  0  0  0  0  0  0  0  0
    3.8122   -7.3235    0.0000 H   0  0  0  0  0  0  0  0  0  0  0  0
    3.0673   -8.5360    0.0000 H   0  0  0  0  0  0  0  0  0  0  0  0
    4.4245   -6.5483    0.0000 H   0  0  0  0  0  0  0  0  0  0  0  0
   -6.3169  -13.0455    0.0000 H   0  0  0  0  0  0  0  0  0  0  0  0
   -7.8282  -12.4245    0.0000 H   0  0  0  0  0  0  0  0  0  0  0  0
   -7.7709  -10.6409    0.0000 H   0  0  0  0  0  0  0  0  0  0  0  0
  1  2  1  0
  2  3  1  0
  3  4  2  0
  4  5  1  0
  5  6  2  0
  6  7  1  0
  7  8  2  0
  7  9  1  0
  9 10  1  0
 10 11  1  0
 11 12  2  0
  9 13  1  0
 13 14  1  0
 14 15  2  0
 15 16  1  0
 16 17  2  0
 17 18  1  0
 16 19  1  0
 14 20  1  0
 20 21  1  0
 21 22  2  0
 22 23  1  0
 23 24  2  0
 24 25  1  0
 25 26  2  0
 25 27  1  0
  1 28  2  0
  1 29  1  0
 29 30  1  0
 30 31  1  0
 31 32  1  0
 32 33  2  0
 32 34  1  0
 35 34  1  1
 35 36  1  0
 36 37  1  0
 37 38  1  0
 38 39  1  0
 35 40  1  0
 35 41  1  0
 41 42  2  0
 41 43  1  0
 43 44  1  0
 44 45  1  0
 45 46  2  0
 45 47  1  0
 47 48  1  0
 48 49  1  0
 49 50  1  0
 50 51  1  0
 51 52  1  0
 52 53  1  0
 53 54  2  3
 53 55  1  0
 48 56  1  0
 56 57  2  0
 56 58  1  0
 58 59  1  0
 59 60  1  0
 60 61  1  0
 61 62  1  0
 62 63  1  0
 63 64  1  0
 59 65  1  0
 65 66  2  0
 65 67  1  0
 67 68  1  0
 68 69  1  0
 69 70  1  0
 70 71  1  0
 71 72  1  0
 68 73  1  0
 73 74  1  0
 74 75  1  0
 75 76  1  0
 68 77  1  0
 77 78  2  0
 77 79  1  0
 79 80  1  0
 80 81  1  0
 81 82  1  0
 82 83  1  0
 83 84  1  0
 84 85  1  0
 85 86  2  3
 85 87  1  0
 80 88  1  0
 88 89  2  0
 88 90  1  0
 90 91  1  0
 91 92  1  0
 92 93  1  0
 93 94  1  0
 94 95  1  0
 95 96  1  0
 96 97  2  3
 96 98  1  0
 91 99  1  0
 99100  2  0
 99101  1  0
101102  1  0
102103  1  0
103104  1  0
104105  1  0
105106  1  0
105107  2  0
102108  1  0
108109  2  0
108110  1  0
110111  1  0
111112  1  0
112113  1  0
113114  1  0
114115  1  0
115116  1  0
116117  2  3
116118  1  0
111119  1  0
119120  2  0
119121  1  0
121122  1  0
122123  1  0
123124  1  0
124125  1  0
125126  1  0
126127  1  0
127128  2  3
127129  1  0
122130  1  0
130131  2  0
130132  1  0
132133  1  0
133134  1  0
134135  1  0
135136  1  0
136137  1  0
137138  1  0
138139  2  3
138140  1  0
133141  1  0
141142  2  0
141143  1  0
143144  1  0
144145  1  0
145146  1  0
146147  1  0
147148  1  0
148149  1  0
149150  1  0
150151  1  0
144152  1  0
144153  1  1
153154  2  0
153155  1  0
  8  3  1  0
 11  6  1  0
 18 13  2  0
 39 72  2  0
 22  9  1  0
 76151  2  0
 26 21  1  0
  2156  1  0
  4157  1  0
  5158  1  0
  8159  1  0
 15160  1  0
 17161  1  0
 18162  1  0
 19163  1  0
 23164  1  0
 24165  1  0
 26166  1  0
 27167  1  0
 29168  1  0
 30169  1  0
 30170  1  0
 31171  1  0
 31172  1  0
 34173  1  0
 36174  1  0
 36175  1  0
 37176  1  0
 37177  1  0
 38178  1  0
 38179  1  0
 39180  1  0
 40181  1  0
 40182  1  0
 40183  1  0
 43184  1  0
 44185  1  0
 44186  1  0
 47187  1  0
 48188  1  6
 49189  1  0
 49190  1  0
 50191  1  0
 50192  1  0
 51193  1  0
 51194  1  0
 52195  1  0
 54196  1  0
 54197  1  0
 55198  1  0
 55199  1  0
 58200  1  0
 59201  1  6
 60202  1  0
 60203  1  0
 61204  1  0
 61205  1  0
 62206  1  0
 62207  1  0
 63208  1  0
 63209  1  0
 64210  1  0
 64211  1  0
 64212  1  0
 67213  1  0
 69214  1  0
 69215  1  0
 70216  1  0
 70217  1  0
 71218  1  0
 71219  1  0
 72220  1  0
 73221  1  0
 73222  1  0
 74223  1  0
 74224  1  0
 75225  1  0
 75226  1  0
 76227  1  0
 79228  1  0
 80229  1  6
 81230  1  0
 81231  1  0
 82232  1  0
 82233  1  0
 83234  1  0
 83235  1  0
 84236  1  0
 86237  1  0
 86238  1  0
 87239  1  0
 87240  1  0
 90241  1  0
 91242  1  6
 92243  1  0
 92244  1  0
 93245  1  0
 93246  1  0
 94247  1  0
 94248  1  0
 95249  1  0
 97250  1  0
 97251  1  0
 98252  1  0
 98253  1  0
101254  1  0
102255  1  6
103256  1  0
103257  1  0
104258  1  0
104259  1  0
106260  1  0
106261  1  0
110262  1  0
111263  1  6
112264  1  0
112265  1  0
113266  1  0
113267  1  0
114268  1  0
114269  1  0
115270  1  0
117271  1  0
117272  1  0
118273  1  0
118274  1  0
121275  1  0
122276  1  6
123277  1  0
123278  1  0
124279  1  0
124280  1  0
125281  1  0
125282  1  0
126283  1  0
128284  1  0
128285  1  0
129286  1  0
129287  1  0
132288  1  0
133289  1  6
134290  1  0
134291  1  0
135292  1  0
135293  1  0
136294  1  0
136295  1  0
137296  1  0
139297  1  0
139298  1  0
140299  1  0
140300  1  0
143301  1  0
145302  1  0
145303  1  0
146304  1  0
146305  1  0
147306  1  0
147307  1  0
148308  1  0
148309  1  0
149310  1  0
149311  1  0
150312  1  0
150313  1  0
151314  1  0
152315  1  0
152316  1  0
152317  1  0
M  CHG  8  54   1  64   1  86   1  97   1 117   1 128   1 139   1 155  -1
M  END
