
     RDKit          2D

340347  0  0  0  0  0  0  0  0999 V2000
   20.1570    1.3234    0.0000 C   0  0  0  0  0  0  0  0  0  0  0  0
   20.9285    2.6098    0.0000 N   0  0  0  0  0  0  0  0  0  0  0  0
   22.4283    2.5849    0.0000 C   0  0  0  0  0  0  0  0  0  0  0  0
   23.1565    1.2735    0.0000 C   0  0  0  0  0  0  0  0  0  0  0  0
   24.6563    1.2486    0.0000 C   0  0  0  0  0  0  0  0  0  0  0  0
   25.4278    2.5350    0.0000 C   0  0  0  0  0  0  0  0  0  0  0  0
   24.6996    3.8463    0.0000 C   0  0  0  0  0  0  0  0  0  0  0  0
   23.1998    3.8713    0.0000 C   0  0  0  0  0  0  0  0  0  0  0  0
   25.7217    4.9442    0.0000 C   0  0  0  0  0  0  0  0  0  0  0  0
   27.0816    4.3113    0.0000 O   0  0  0  0  0  0  0  0  0  0  0  0
   26.9001    2.8224    0.0000 C   0  0  0  0  0  0  0  0  0  0  0  0
   27.9979    1.8003    0.0000 O   0  0  0  0  0  0  0  0  0  0  0  0
   26.8529    5.9292    0.0000 C   0  0  0  0  0  0  0  0  0  0  0  0
   26.5655    7.4014    0.0000 C   0  0  0  0  0  0  0  0  0  0  0  0
   27.6968    8.3864    0.0000 C   0  0  0  0  0  0  0  0  0  0  0  0
   29.1155    7.8992    0.0000 C   0  0  0  0  0  0  0  0  0  0  0  0
   29.4029    6.4270    0.0000 C   0  0  0  0  0  0  0  0  0  0  0  0
   28.2716    5.4420    0.0000 C   0  0  0  0  0  0  0  0  0  0  0  0
   30.2467    8.8842    0.0000 O   0  0  0  0  0  0  0  0  0  0  0  0
   25.1468    7.8886    0.0000 O   0  0  0  0  0  0  0  0  0  0  0  0
   24.0156    6.9036    0.0000 C   0  0  0  0  0  0  0  0  0  0  0  0
   24.3030    5.4314    0.0000 C   0  0  0  0  0  0  0  0  0  0  0  0
   23.0376    5.1334    0.0000 C   0  0  0  0  0  0  0  0  0  0  0  0
   22.2810    5.3932    0.0000 C   0  0  0  0  0  0  0  0  0  0  0  0
   22.1277    6.1784    0.0000 C   0  0  0  0  0  0  0  0  0  0  0  0
   22.7310    6.7037    0.0000 C   0  0  0  0  0  0  0  0  0  0  0  0
   20.0470    6.8929    0.0000 O   0  0  0  0  0  0  0  0  0  0  0  0
   21.0397    0.1107    0.0000 S   0  0  0  0  0  0  0  0  0  0  0  0
   18.6572    1.3484    0.0000 N   0  0  0  0  0  0  0  0  0  0  0  0
   17.8857    0.0620    0.0000 C   0  0  0  0  0  0  0  0  0  0  0  0
   16.3859    0.0870    0.0000 C   0  0  0  0  0  0  0  0  0  0  0  0
   15.6144   -1.1994    0.0000 C   0  0  0  0  0  0  0  0  0  0  0  0
   16.1585   -1.7819    0.0000 O   0  0  0  0  0  0  0  0  0  0  0  0
   14.1146   -1.1744    0.0000 N   0  0  0  0  0  0  0  0  0  0  0  0
   13.3431   -2.4608    0.0000 C   0  0  0  0  0  0  0  0  0  0  0  0
   14.7439   -2.9972    0.0000 C   0  0  0  0  0  0  0  0  0  0  0  0
   15.9088   -2.0523    0.0000 C   0  0  0  0  0  0  0  0  0  0  0  0
   17.3096   -2.5887    0.0000 C   0  0  0  0  0  0  0  0  0  0  0  0
   18.4746   -1.6438    0.0000 N   0  0  0  0  0  0  0  0  0  0  0  0
   19.8754   -2.1802    0.0000 C   0  0  0  0  0  0  0  0  0  0  0  0
   21.0403   -1.2353    0.0000 N   0  0  0  0  0  0  0  0  0  0  0  0
   20.1112   -3.6615    0.0000 N   0  0  0  0  0  0  0  0  0  0  0  0
   12.1781   -3.4058    0.0000 C   0  0  0  0  0  0  0  0  0  0  0  0
   12.7654   -4.7860    0.0000 O   0  0  0  0  0  0  0  0  0  0  0  0
   10.7773   -2.8693    0.0000 N   0  0  0  0  0  0  0  0  0  0  0  0
    9.6123   -3.8143    0.0000 C   0  0  0  0  0  0  0  0  0  0  0  0
   10.7452   -4.7974    0.0000 C   0  0  0  0  0  0  0  0  0  0  0  0
   12.1631   -4.3079    0.0000 C   0  0  0  0  0  0  0  0  0  0  0  0
   13.2960   -5.2911    0.0000 C   0  0  0  0  0  0  0  0  0  0  0  0
   14.7138   -4.8016    0.0000 N   0  0  0  0  0  0  0  0  0  0  0  0
   15.8467   -5.7848    0.0000 C   0  0  0  0  0  0  0  0  0  0  0  0
   17.2646   -5.2952    0.0000 N   0  0  0  0  0  0  0  0  0  0  0  0
   15.5617   -7.2574    0.0000 N   0  0  0  0  0  0  0  0  0  0  0  0
    8.1945   -4.3038    0.0000 C   0  0  0  0  0  0  0  0  0  0  0  0
    8.2743   -5.8017    0.0000 O   0  0  0  0  0  0  0  0  0  0  0  0
    7.0616   -3.3206    0.0000 N   0  0  0  0  0  0  0  0  0  0  0  0
    5.6437   -3.8101    0.0000 C   0  0  0  0  0  0  0  0  0  0  0  0
    6.3720   -5.1215    0.0000 C   0  0  0  0  0  0  0  0  0  0  0  0
    7.8718   -5.1464    0.0000 C   0  0  0  0  0  0  0  0  0  0  0  0
    8.6001   -6.4578    0.0000 C   0  0  0  0  0  0  0  0  0  0  0  0
   10.0999   -6.4827    0.0000 N   0  0  0  0  0  0  0  0  0  0  0  0
   10.8282   -7.7940    0.0000 C   0  0  0  0  0  0  0  0  0  0  0  0
   12.3279   -7.8190    0.0000 N   0  0  0  0  0  0  0  0  0  0  0  0
   10.0566   -9.0804    0.0000 N   0  0  0  0  0  0  0  0  0  0  0  0
    4.1439   -3.7852    0.0000 C   0  0  0  0  0  0  0  0  0  0  0  0
    3.7066   -5.2200    0.0000 O   0  0  0  0  0  0  0  0  0  0  0  0
    3.4156   -2.4738    0.0000 N   0  0  0  0  0  0  0  0  0  0  0  0
    1.9159   -2.4489    0.0000 C   0  0  0  0  0  0  0  0  0  0  0  0
    2.1517   -3.9302    0.0000 C   0  0  0  0  0  0  0  0  0  0  0  0
    3.5525   -4.4666    0.0000 C   0  0  0  0  0  0  0  0  0  0  0  0
    3.7884   -5.9480    0.0000 C   0  0  0  0  0  0  0  0  0  0  0  0
    5.1892   -6.4844    0.0000 N   0  0  0  0  0  0  0  0  0  0  0  0
    5.4250   -7.9657    0.0000 C   0  0  0  0  0  0  0  0  0  0  0  0
    6.8259   -8.5021    0.0000 N   0  0  0  0  0  0  0  0  0  0  0  0
    4.2601   -8.9106    0.0000 N   0  0  0  0  0  0  0  0  0  0  0  0
    0.5150   -1.9125    0.0000 C   0  0  0  0  0  0  0  0  0  0  0  0
   -0.3866   -3.1112    0.0000 O   0  0  0  0  0  0  0  0  0  0  0  0
    0.2792   -0.4311    0.0000 N   0  0  0  0  0  0  0  0  0  0  0  0
   -1.1216    0.1053    0.0000 C   0  0  0  0  0  0  0  0  0  0  0  0
   -0.9802   -1.3880    0.0000 C   0  0  0  0  0  0  0  0  0  0  0  0
   -1.1239   -2.8811    0.0000 C   0  0  0  0  0  0  0  0  0  0  0  0
   -1.5476   -4.3200    0.0000 C   0  0  0  0  0  0  0  0  0  0  0  0
   -2.2360   -5.6528    0.0000 C   0  0  0  0  0  0  0  0  0  0  0  0
   -0.0189    1.1222    0.0000 C   0  0  0  0  0  0  0  0  0  0  0  0
   -1.5431    1.5449    0.0000 C   0  0  0  0  0  0  0  0  0  0  0  0
   -0.2283    2.2669    0.0000 O   0  0  0  0  0  0  0  0  0  0  0  0
   -2.2294    2.8786    0.0000 N   0  0  0  0  0  0  0  0  0  0  0  0
   -3.1557    4.0584    0.0000 C   0  0  0  0  0  0  0  0  0  0  0  0
   -2.7779    5.5101    0.0000 C   0  0  0  0  0  0  0  0  0  0  0  0
   -1.3318    5.9087    0.0000 C   0  0  0  0  0  0  0  0  0  0  0  0
   -0.9540    7.3603    0.0000 C   0  0  0  0  0  0  0  0  0  0  0  0
    0.4921    7.7589    0.0000 N   0  0  0  0  0  0  0  0  0  0  0  0
    0.8699    9.2105    0.0000 C   0  0  0  0  0  0  0  0  0  0  0  0
    2.3160    9.6091    0.0000 N   0  0  0  0  0  0  0  0  0  0  0  0
   -0.1983   10.2636    0.0000 N   0  0  0  0  0  0  0  0  0  0  0  0
   -4.2886    5.0416    0.0000 C   0  0  0  0  0  0  0  0  0  0  0  0
   -3.5729    6.3599    0.0000 O   0  0  0  0  0  0  0  0  0  0  0  0
   -5.5871    5.7926    0.0000 N   0  0  0  0  0  0  0  0  0  0  0  0
   -7.0042    6.2843    0.0000 C   0  0  0  0  0  0  0  0  0  0  0  0
   -7.4711    7.7098    0.0000 C   0  0  0  0  0  0  0  0  0  0  0  0
   -6.4701    8.8269    0.0000 C   0  0  0  0  0  0  0  0  0  0  0  0
   -6.9371   10.2524    0.0000 C   0  0  0  0  0  0  0  0  0  0  0  0
   -5.9361   11.3695    0.0000 N   0  0  0  0  0  0  0  0  0  0  0  0
   -6.4030   12.7950    0.0000 C   0  0  0  0  0  0  0  0  0  0  0  0
   -5.4020   13.9121    0.0000 N   0  0  0  0  0  0  0  0  0  0  0  0
   -7.8710   13.1033    0.0000 N   0  0  0  0  0  0  0  0  0  0  0  0
   -8.4888    6.4989    0.0000 C   0  0  0  0  0  0  0  0  0  0  0  0
   -8.5994    7.9948    0.0000 O   0  0  0  0  0  0  0  0  0  0  0  0
   -9.9871    6.4287    0.0000 N   0  0  0  0  0  0  0  0  0  0  0  0
  -11.4451    6.0762    0.0000 C   0  0  0  0  0  0  0  0  0  0  0  0
  -12.6086    7.0229    0.0000 C   0  0  0  0  0  0  0  0  0  0  0  0
  -12.3705    8.5039    0.0000 C   0  0  0  0  0  0  0  0  0  0  0  0
  -13.5339    9.4506    0.0000 C   0  0  0  0  0  0  0  0  0  0  0  0
  -13.2958   10.9316    0.0000 N   0  0  0  0  0  0  0  0  0  0  0  0
  -14.4593   11.8783    0.0000 C   0  0  0  0  0  0  0  0  0  0  0  0
  -14.2211   13.3593    0.0000 N   0  0  0  0  0  0  0  0  0  0  0  0
  -15.8609   11.3441    0.0000 N   0  0  0  0  0  0  0  0  0  0  0  0
  -12.8100    5.4541    0.0000 C   0  0  0  0  0  0  0  0  0  0  0  0
  -13.7119    6.6527    0.0000 O   0  0  0  0  0  0  0  0  0  0  0  0
  -14.0326    4.5850    0.0000 N   0  0  0  0  0  0  0  0  0  0  0  0
  -15.0685    3.5002    0.0000 C   0  0  0  0  0  0  0  0  0  0  0  0
  -16.5592    3.6676    0.0000 C   0  0  0  0  0  0  0  0  0  0  0  0
  -17.1595    5.0422    0.0000 C   0  0  0  0  0  0  0  0  0  0  0  0
  -16.4003    6.3359    0.0000 C   0  0  0  0  0  0  0  0  0  0  0  0
  -17.3960    7.4577    0.0000 N   0  0  0  0  0  0  0  0  0  0  0  0
  -18.7706    6.8574    0.0000 C   0  0  0  0  0  0  0  0  0  0  0  0
  -20.1366    7.4772    0.0000 C   0  0  0  0  0  0  0  0  0  0  0  0
  -21.3563    6.6042    0.0000 C   0  0  0  0  0  0  0  0  0  0  0  0
  -21.2102    5.1113    0.0000 C   0  0  0  0  0  0  0  0  0  0  0  0
  -19.8442    4.4915    0.0000 C   0  0  0  0  0  0  0  0  0  0  0  0
  -18.6245    5.3645    0.0000 C   0  0  0  0  0  0  0  0  0  0  0  0
  -15.8805    2.2389    0.0000 C   0  0  0  0  0  0  0  0  0  0  0  0
  -17.2872    2.7597    0.0000 O   0  0  0  0  0  0  0  0  0  0  0  0
  -16.4390    0.8468    0.0000 N   0  0  0  0  0  0  0  0  0  0  0  0
  -16.7240   -0.6259    0.0000 C   0  0  0  0  0  0  0  0  0  0  0  0
  -18.0685   -1.2909    0.0000 C   0  0  0  0  0  0  0  0  0  0  0  0
  -19.3168   -0.4591    0.0000 C   0  0  0  0  0  0  0  0  0  0  0  0
  -20.6613   -1.1242    0.0000 C   0  0  0  0  0  0  0  0  0  0  0  0
  -21.9095   -0.2923    0.0000 N   0  0  0  0  0  0  0  0  0  0  0  0
  -23.2540   -0.9574    0.0000 C   0  0  0  0  0  0  0  0  0  0  0  0
  -24.5022   -0.1255    0.0000 N   0  0  0  0  0  0  0  0  0  0  0  0
  -23.3503   -2.4543    0.0000 N   0  0  0  0  0  0  0  0  0  0  0  0
  -16.7252   -2.1259    0.0000 C   0  0  0  0  0  0  0  0  0  0  0  0
  -18.1901   -2.4483    0.0000 O   0  0  0  0  0  0  0  0  0  0  0  0
  -16.4425   -3.5990    0.0000 N   0  0  0  0  0  0  0  0  0  0  0  0
  -15.8860   -4.9920    0.0000 C   0  0  0  0  0  0  0  0  0  0  0  0
  -16.6576   -6.2783    0.0000 C   0  0  0  0  0  0  0  0  0  0  0  0
  -18.1573   -6.2534    0.0000 C   0  0  0  0  0  0  0  0  0  0  0  0
  -18.9289   -7.5398    0.0000 C   0  0  0  0  0  0  0  0  0  0  0  0
  -20.4286   -7.5148    0.0000 N   0  0  0  0  0  0  0  0  0  0  0  0
  -21.2002   -8.8012    0.0000 C   0  0  0  0  0  0  0  0  0  0  0  0
  -22.6999   -8.7762    0.0000 N   0  0  0  0  0  0  0  0  0  0  0  0
  -20.4719  -10.1125    0.0000 N   0  0  0  0  0  0  0  0  0  0  0  0
  -15.0761   -6.2545    0.0000 C   0  0  0  0  0  0  0  0  0  0  0  0
  -16.1341   -7.3177    0.0000 O   0  0  0  0  0  0  0  0  0  0  0  0
  -14.0418   -7.3409    0.0000 N   0  0  0  0  0  0  0  0  0  0  0  0
  -12.8206   -8.2119    0.0000 C   0  0  0  0  0  0  0  0  0  0  0  0
  -11.4566   -8.8361    0.0000 C   0  0  0  0  0  0  0  0  0  0  0  0
   -9.9992   -9.1908    0.0000 C   0  0  0  0  0  0  0  0  0  0  0  0
   -8.5009   -9.2634    0.0000 C   0  0  0  0  0  0  0  0  0  0  0  0
   -7.0160   -9.0510    0.0000 C   0  0  0  0  0  0  0  0  0  0  0  0
   -5.5982   -8.5615    0.0000 C   0  0  0  0  0  0  0  0  0  0  0  0
   -4.2985   -7.8125    0.0000 C   0  0  0  0  0  0  0  0  0  0  0  0
   -3.1642   -6.8311    0.0000 C   0  0  0  0  0  0  0  0  0  0  0  0
  -14.1433   -8.9193    0.0000 C   0  0  0  0  0  0  0  0  0  0  0  0
  -12.7742   -9.7112    0.0000 C   0  0  0  0  0  0  0  0  0  0  0  0
  -13.9436  -10.6506    0.0000 O   0  0  0  0  0  0  0  0  0  0  0  0
  -11.6635  -10.7193    0.0000 O   0  0  0  0  0  0  0  0  0  0  0  0
   20.0458    3.8226    0.0000 H   0  0  0  0  0  0  0  0  0  0  0  0
   22.3850   -0.0128    0.0000 H   0  0  0  0  0  0  0  0  0  0  0  0
   25.3846   -0.0628    0.0000 H   0  0  0  0  0  0  0  0  0  0  0  0
   22.1758    4.9674    0.0000 H   0  0  0  0  0  0  0  0  0  0  0  0
   27.4094    9.8586    0.0000 H   0  0  0  0  0  0  0  0  0  0  0  0
   30.8215    5.9398    0.0000 H   0  0  0  0  0  0  0  0  0  0  0  0
   28.5590    3.9698    0.0000 H   0  0  0  0  0  0  0  0  0  0  0  0
   31.6654    8.3970    0.0000 H   0  0  0  0  0  0  0  0  0  0  0  0
   23.4591    2.9741    0.0000 H   0  0  0  0  0  0  0  0  0  0  0  0
   20.5102    4.0938    0.0000 H   0  0  0  0  0  0  0  0  0  0  0  0
   22.3095    8.8630    0.0000 H   0  0  0  0  0  0  0  0  0  0  0  0
   19.7596    8.3652    0.0000 H   0  0  0  0  0  0  0  0  0  0  0  0
   17.9289    2.6597    0.0000 H   0  0  0  0  0  0  0  0  0  0  0  0
   19.2865   -0.4744    0.0000 H   0  0  0  0  0  0  0  0  0  0  0  0
   17.9655   -1.4359    0.0000 H   0  0  0  0  0  0  0  0  0  0  0  0
   16.6709    1.5597    0.0000 H   0  0  0  0  0  0  0  0  0  0  0  0
   14.9851    0.6234    0.0000 H   0  0  0  0  0  0  0  0  0  0  0  0
   13.3863    0.1369    0.0000 H   0  0  0  0  0  0  0  0  0  0  0  0
   12.2102   -1.4777    0.0000 H   0  0  0  0  0  0  0  0  0  0  0  0
   15.7484   -4.1112    0.0000 H   0  0  0  0  0  0  0  0  0  0  0  0
   14.3065   -4.4321    0.0000 H   0  0  0  0  0  0  0  0  0  0  0  0
   16.6803   -0.7659    0.0000 H   0  0  0  0  0  0  0  0  0  0  0  0
   15.0475   -0.8242    0.0000 H   0  0  0  0  0  0  0  0  0  0  0  0
   18.4425   -3.5719    0.0000 H   0  0  0  0  0  0  0  0  0  0  0  0
   16.7007   -3.9595    0.0000 H   0  0  0  0  0  0  0  0  0  0  0  0
   18.6042   -0.1494    0.0000 H   0  0  0  0  0  0  0  0  0  0  0  0
   22.4411   -1.7717    0.0000 H   0  0  0  0  0  0  0  0  0  0  0  0
   20.9868    0.2638    0.0000 H   0  0  0  0  0  0  0  0  0  0  0  0
   21.5120   -4.1979    0.0000 H   0  0  0  0  0  0  0  0  0  0  0  0
   18.9463   -4.6065    0.0000 H   0  0  0  0  0  0  0  0  0  0  0  0
   10.5414   -1.3880    0.0000 H   0  0  0  0  0  0  0  0  0  0  0  0
    8.8841   -2.5029    0.0000 H   0  0  0  0  0  0  0  0  0  0  0  0
   11.3082   -6.1878    0.0000 H   0  0  0  0  0  0  0  0  0  0  0  0
    9.8435   -5.9962    0.0000 H   0  0  0  0  0  0  0  0  0  0  0  0
   13.3280   -3.3630    0.0000 H   0  0  0  0  0  0  0  0  0  0  0  0
   11.7738   -2.8593    0.0000 H   0  0  0  0  0  0  0  0  0  0  0  0
   14.0242   -6.6024    0.0000 H   0  0  0  0  0  0  0  0  0  0  0  0
   12.2549   -6.3710    0.0000 H   0  0  0  0  0  0  0  0  0  0  0  0
   15.3467   -3.4416    0.0000 H   0  0  0  0  0  0  0  0  0  0  0  0
   18.3974   -6.2784    0.0000 H   0  0  0  0  0  0  0  0  0  0  0  0
   17.5496   -3.8226    0.0000 H   0  0  0  0  0  0  0  0  0  0  0  0
   16.6946   -8.2406    0.0000 H   0  0  0  0  0  0  0  0  0  0  0  0
   14.1438   -7.7469    0.0000 H   0  0  0  0  0  0  0  0  0  0  0  0
    7.3466   -1.8479    0.0000 H   0  0  0  0  0  0  0  0  0  0  0  0
    5.4079   -2.3288    0.0000 H   0  0  0  0  0  0  0  0  0  0  0  0
    6.4255   -6.6205    0.0000 H   0  0  0  0  0  0  0  0  0  0  0  0
    5.1147   -5.9395    0.0000 H   0  0  0  0  0  0  0  0  0  0  0  0
    9.2897   -4.6569    0.0000 H   0  0  0  0  0  0  0  0  0  0  0  0
    8.0014   -3.6520    0.0000 H   0  0  0  0  0  0  0  0  0  0  0  0
    8.8359   -7.9391    0.0000 H   0  0  0  0  0  0  0  0  0  0  0  0
    7.2524   -7.1164    0.0000 H   0  0  0  0  0  0  0  0  0  0  0  0
   11.1597   -5.4212    0.0000 H   0  0  0  0  0  0  0  0  0  0  0  0
   13.0562   -9.1303    0.0000 H   0  0  0  0  0  0  0  0  0  0  0  0
   13.0995   -6.5326    0.0000 H   0  0  0  0  0  0  0  0  0  0  0  0
   10.7849  -10.3918    0.0000 H   0  0  0  0  0  0  0  0  0  0  0  0
    8.5569   -9.0555    0.0000 H   0  0  0  0  0  0  0  0  0  0  0  0
    4.1872   -1.1874    0.0000 H   0  0  0  0  0  0  0  0  0  0  0  0
    2.2009   -0.9762    0.0000 H   0  0  0  0  0  0  0  0  0  0  0  0
    1.6893   -5.3572    0.0000 H   0  0  0  0  0  0  0  0  0  0  0  0
    0.6519   -3.9053    0.0000 H   0  0  0  0  0  0  0  0  0  0  0  0
    5.0523   -4.4916    0.0000 H   0  0  0  0  0  0  0  0  0  0  0  0
    4.1854   -3.1067    0.0000 H   0  0  0  0  0  0  0  0  0  0  0  0
    3.5034   -7.4206    0.0000 H   0  0  0  0  0  0  0  0  0  0  0  0
    2.2967   -6.1060    0.0000 H   0  0  0  0  0  0  0  0  0  0  0  0
    6.5482   -5.8494    0.0000 H   0  0  0  0  0  0  0  0  0  0  0  0
    7.0617   -9.9835    0.0000 H   0  0  0  0  0  0  0  0  0  0  0  0
    7.9908   -7.5572    0.0000 H   0  0  0  0  0  0  0  0  0  0  0  0
    4.4960  -10.3920    0.0000 H   0  0  0  0  0  0  0  0  0  0  0  0
    2.8593   -8.3742    0.0000 H   0  0  0  0  0  0  0  0  0  0  0  0
    1.5506    0.3648    0.0000 H   0  0  0  0  0  0  0  0  0  0  0  0
    0.4482   -0.9302    0.0000 H   0  0  0  0  0  0  0  0  0  0  0  0
    0.1878   -2.3292    0.0000 H   0  0  0  0  0  0  0  0  0  0  0  0
    0.3761   -2.8848    0.0000 H   0  0  0  0  0  0  0  0  0  0  0  0
   -0.0228   -3.8997    0.0000 H   0  0  0  0  0  0  0  0  0  0  0  0
   -0.0702   -4.0607    0.0000 H   0  0  0  0  0  0  0  0  0  0  0  0
   -0.6592   -5.5286    0.0000 H   0  0  0  0  0  0  0  0  0  0  0  0
   -0.9748   -6.4647    0.0000 H   0  0  0  0  0  0  0  0  0  0  0  0
    1.4568    0.8536    0.0000 H   0  0  0  0  0  0  0  0  0  0  0  0
    0.8267    2.3611    0.0000 H   0  0  0  0  0  0  0  0  0  0  0  0
   -0.9564    2.2932    0.0000 H   0  0  0  0  0  0  0  0  0  0  0  0
   -0.8776    3.5287    0.0000 H   0  0  0  0  0  0  0  0  0  0  0  0
   -1.6609    4.1832    0.0000 H   0  0  0  0  0  0  0  0  0  0  0  0
   -2.9193    7.0034    0.0000 H   0  0  0  0  0  0  0  0  0  0  0  0
   -4.1996    5.9883    0.0000 H   0  0  0  0  0  0  0  0  0  0  0  0
    0.1634    5.7886    0.0000 H   0  0  0  0  0  0  0  0  0  0  0  0
   -0.8333    4.4939    0.0000 H   0  0  0  0  0  0  0  0  0  0  0  0
   -1.0954    8.8536    0.0000 H   0  0  0  0  0  0  0  0  0  0  0  0
   -2.4234    7.6617    0.0000 H   0  0  0  0  0  0  0  0  0  0  0  0
    1.5603    6.7059    0.0000 H   0  0  0  0  0  0  0  0  0  0  0  0
    2.6938   11.0607    0.0000 H   0  0  0  0  0  0  0  0  0  0  0  0
    3.3842    8.5561    0.0000 H   0  0  0  0  0  0  0  0  0  0  0  0
    0.1795   11.7152    0.0000 H   0  0  0  0  0  0  0  0  0  0  0  0
   -1.6444    9.8650    0.0000 H   0  0  0  0  0  0  0  0  0  0  0  0
   -4.8013    7.0703    0.0000 H   0  0  0  0  0  0  0  0  0  0  0  0
   -5.8142    7.1974    0.0000 H   0  0  0  0  0  0  0  0  0  0  0  0
   -8.3975    8.8896    0.0000 H   0  0  0  0  0  0  0  0  0  0  0  0
   -8.9257    7.3435    0.0000 H   0  0  0  0  0  0  0  0  0  0  0  0
   -5.1474    9.5343    0.0000 H   0  0  0  0  0  0  0  0  0  0  0  0
   -5.2858    7.9063    0.0000 H   0  0  0  0  0  0  0  0  0  0  0  0
   -7.8634   11.4322    0.0000 H   0  0  0  0  0  0  0  0  0  0  0  0
   -8.3362    9.7115    0.0000 H   0  0  0  0  0  0  0  0  0  0  0  0
   -4.4681   11.0611    0.0000 H   0  0  0  0  0  0  0  0  0  0  0  0
   -5.8689   15.3375    0.0000 H   0  0  0  0  0  0  0  0  0  0  0  0
   -3.9340   13.6037    0.0000 H   0  0  0  0  0  0  0  0  0  0  0  0
   -8.3379   14.5288    0.0000 H   0  0  0  0  0  0  0  0  0  0  0  0
   -8.8720   11.9862    0.0000 H   0  0  0  0  0  0  0  0  0  0  0  0
  -10.0169    7.9284    0.0000 H   0  0  0  0  0  0  0  0  0  0  0  0
  -10.9377    7.4877    0.0000 H   0  0  0  0  0  0  0  0  0  0  0  0
  -14.0257    7.5146    0.0000 H   0  0  0  0  0  0  0  0  0  0  0  0
  -13.6342    5.9284    0.0000 H   0  0  0  0  0  0  0  0  0  0  0  0
  -11.6401    9.8141    0.0000 H   0  0  0  0  0  0  0  0  0  0  0  0
  -10.8765    8.3697    0.0000 H   0  0  0  0  0  0  0  0  0  0  0  0
  -14.9511    9.9423    0.0000 H   0  0  0  0  0  0  0  0  0  0  0  0
  -14.4185    8.2392    0.0000 H   0  0  0  0  0  0  0  0  0  0  0  0
  -11.8942   11.4658    0.0000 H   0  0  0  0  0  0  0  0  0  0  0  0
  -15.3846   14.3060    0.0000 H   0  0  0  0  0  0  0  0  0  0  0  0
  -12.8195   13.8935    0.0000 H   0  0  0  0  0  0  0  0  0  0  0  0
  -17.0244   12.2908    0.0000 H   0  0  0  0  0  0  0  0  0  0  0  0
  -16.0991    9.8631    0.0000 H   0  0  0  0  0  0  0  0  0  0  0  0
  -14.8684    5.8305    0.0000 H   0  0  0  0  0  0  0  0  0  0  0  0
  -15.5805    4.9101    0.0000 H   0  0  0  0  0  0  0  0  0  0  0  0
  -18.0492    3.4954    0.0000 H   0  0  0  0  0  0  0  0  0  0  0  0
  -16.8302    2.1923    0.0000 H   0  0  0  0  0  0  0  0  0  0  0  0
  -14.9364    6.6629    0.0000 H   0  0  0  0  0  0  0  0  0  0  0  0
  -17.0737    8.9227    0.0000 H   0  0  0  0  0  0  0  0  0  0  0  0
  -20.2827    8.9701    0.0000 H   0  0  0  0  0  0  0  0  0  0  0  0
  -22.7223    7.2240    0.0000 H   0  0  0  0  0  0  0  0  0  0  0  0
  -22.4299    4.2383    0.0000 H   0  0  0  0  0  0  0  0  0  0  0  0
  -19.6981    2.9986    0.0000 H   0  0  0  0  0  0  0  0  0  0  0  0
  -17.8156    1.4427    0.0000 H   0  0  0  0  0  0  0  0  0  0  0  0
  -17.7972    0.4221    0.0000 H   0  0  0  0  0  0  0  0  0  0  0  0
  -19.1045   -2.3757    0.0000 H   0  0  0  0  0  0  0  0  0  0  0  0
  -17.4990   -2.6786    0.0000 H   0  0  0  0  0  0  0  0  0  0  0  0
  -20.2052    0.7495    0.0000 H   0  0  0  0  0  0  0  0  0  0  0  0
  -18.5741    0.8441    0.0000 H   0  0  0  0  0  0  0  0  0  0  0  0
  -21.6972   -2.2090    0.0000 H   0  0  0  0  0  0  0  0  0  0  0  0
  -19.9268   -2.4320    0.0000 H   0  0  0  0  0  0  0  0  0  0  0  0
  -21.8132    1.2046    0.0000 H   0  0  0  0  0  0  0  0  0  0  0  0
  -25.8467   -0.7906    0.0000 H   0  0  0  0  0  0  0  0  0  0  0  0
  -24.4059    1.3714    0.0000 H   0  0  0  0  0  0  0  0  0  0  0  0
  -24.6948   -3.1193    0.0000 H   0  0  0  0  0  0  0  0  0  0  0  0
  -22.1021   -3.2861    0.0000 H   0  0  0  0  0  0  0  0  0  0  0  0
  -17.9227   -3.8419    0.0000 H   0  0  0  0  0  0  0  0  0  0  0  0
  -17.3555   -4.6906    0.0000 H   0  0  0  0  0  0  0  0  0  0  0  0
  -16.9426   -7.7510    0.0000 H   0  0  0  0  0  0  0  0  0  0  0  0
  -15.4282   -7.1378    0.0000 H   0  0  0  0  0  0  0  0  0  0  0  0
  -19.5582   -5.7170    0.0000 H   0  0  0  0  0  0  0  0  0  0  0  0
  -18.2372   -4.7555    0.0000 H   0  0  0  0  0  0  0  0  0  0  0  0
  -19.2139   -9.0124    0.0000 H   0  0  0  0  0  0  0  0  0  0  0  0
  -17.6039   -8.2429    0.0000 H   0  0  0  0  0  0  0  0  0  0  0  0
  -21.1569   -6.2035    0.0000 H   0  0  0  0  0  0  0  0  0  0  0  0
  -23.4715  -10.0626    0.0000 H   0  0  0  0  0  0  0  0  0  0  0  0
  -23.4282   -7.4649    0.0000 H   0  0  0  0  0  0  0  0  0  0  0  0
  -21.2434  -11.3989    0.0000 H   0  0  0  0  0  0  0  0  0  0  0  0
  -18.9721  -10.1375    0.0000 H   0  0  0  0  0  0  0  0  0  0  0  0
  -15.1557   -8.3454    0.0000 H   0  0  0  0  0  0  0  0  0  0  0  0
  -11.1273  -10.2995    0.0000 H   0  0  0  0  0  0  0  0  0  0  0  0
  -12.3583  -10.0348    0.0000 H   0  0  0  0  0  0  0  0  0  0  0  0
   -9.5709  -10.6284    0.0000 H   0  0  0  0  0  0  0  0  0  0  0  0
  -10.6577  -10.5386    0.0000 H   0  0  0  0  0  0  0  0  0  0  0  0
   -7.8083  -10.5939    0.0000 H   0  0  0  0  0  0  0  0  0  0  0  0
   -9.0661  -10.6528    0.0000 H   0  0  0  0  0  0  0  0  0  0  0  0
   -6.0841  -10.2264    0.0000 H   0  0  0  0  0  0  0  0  0  0  0  0
   -7.3080  -10.5224    0.0000 H   0  0  0  0  0  0  0  0  0  0  0  0
   -4.4606   -9.5393    0.0000 H   0  0  0  0  0  0  0  0  0  0  0  0
   -5.6064  -10.0615    0.0000 H   0  0  0  0  0  0  0  0  0  0  0  0
   -2.9155   -8.3931    0.0000 H   0  0  0  0  0  0  0  0  0  0  0  0
   -4.0228   -9.2870    0.0000 H   0  0  0  0  0  0  0  0  0  0  0  0
   -2.0794   -7.8671    0.0000 H   0  0  0  0  0  0  0  0  0  0  0  0
  -14.3744  -10.4014    0.0000 H   0  0  0  0  0  0  0  0  0  0  0  0
  -15.5913   -9.3110    0.0000 H   0  0  0  0  0  0  0  0  0  0  0  0
  -14.9413   -7.6492    0.0000 H   0  0  0  0  0  0  0  0  0  0  0  0
  1  2  1  0
  2  3  1  0
  3  4  2  0
  4  5  1  0
  5  6  2  0
  6  7  1  0
  7  8  2  0
  7  9  1  0
  9 10  1  0
 10 11  1  0
 11 12  2  0
  9 13  1  0
 13 14  1  0
 14 15  2  0
 15 16  1  0
 16 17  2  0
 17 18  1  0
 16 19  1  0
 14 20  1  0
 20 21  1  0
 21 22  2  0
 22 23  1  0
 23 24  2  0
 24 25  1  0
 25 26  2  0
 25 27  1  0
  1 28  2  0
  1 29  1  0
 29 30  1  0
 30 31  1  0
 31 32  1  0
 32 33  2  0
 32 34  1  0
 34 35  1  0
 35 36  1  0
 36 37  1  0
 37 38  1  0
 38 39  1  0
 39 40  1  0
 40 41  2  3
 40 42  1  0
 35 43  1  0
 43 44  2  0
 43 45  1  0
 45 46  1  0
 46 47  1  0
 47 48  1  0
 48 49  1  0
 49 50  1  0
 50 51  1  0
 51 52  2  3
 51 53  1  0
 46 54  1  0
 54 55  2  0
 54 56  1  0
 56 57  1  0
 57 58  1  0
 58 59  1  0
 59 60  1  0
 60 61  1  0
 61 62  1  0
 62 63  2  3
 62 64  1  0
 57 65  1  0
 65 66  2  0
 65 67  1  0
 67 68  1  0
 68 69  1  0
 69 70  1  0
 70 71  1  0
 71 72  1  0
 72 73  1  0
 73 74  2  3
 73 75  1  0
 68 76  1  0
 76 77  2  0
 76 78  1  0
 79 78  1  6
 79 80  1  0
 80 81  1  0
 81 82  1  0
 82 83  1  0
 79 84  1  0
 79 85  1  0
 85 86  2  0
 85 87  1  0
 87 88  1  0
 88 89  1  0
 89 90  1  0
 90 91  1  0
 91 92  1  0
 92 93  1  0
 93 94  2  3
 93 95  1  0
 88 96  1  0
 96 97  2  0
 96 98  1  0
 98 99  1  0
 99100  1  0
100101  1  0
101102  1  0
102103  1  0
103104  1  0
104105  2  3
104106  1  0
 99107  1  0
107108  2  0
107109  1  0
109110  1  0
110111  1  0
111112  1  0
112113  1  0
113114  1  0
114115  1  0
115116  2  3
115117  1  0
110118  1  0
118119  2  0
118120  1  0
120121  1  0
121122  1  0
122123  1  0
123124  2  0
124125  1  0
125126  1  0
126127  2  0
127128  1  0
128129  2  0
129130  1  0
130131  2  0
121132  1  0
132133  2  0
132134  1  0
134135  1  0
135136  1  0
136137  1  0
137138  1  0
138139  1  0
139140  1  0
140141  2  3
140142  1  0
135143  1  0
143144  2  0
143145  1  0
145146  1  0
146147  1  0
147148  1  0
148149  1  0
149150  1  0
150151  1  0
151152  2  3
151153  1  0
146154  1  0
154155  2  0
154156  1  0
156157  1  0
157158  1  0
158159  1  0
159160  1  0
160161  1  0
161162  1  0
162163  1  0
163164  1  0
157165  1  0
157166  1  1
166167  2  0
166168  1  0
  8  3  1  0
131123  1  0
 11  6  1  0
131126  1  0
 18 13  2  0
 83164  2  0
 22  9  1  0
 26 21  1  0
  2169  1  0
  4170  1  0
  5171  1  0
  8172  1  0
 15173  1  0
 17174  1  0
 18175  1  0
 19176  1  0
 23177  1  0
 24178  1  0
 26179  1  0
 27180  1  0
 29181  1  0
 30182  1  0
 30183  1  0
 31184  1  0
 31185  1  0
 34186  1  0
 35187  1  1
 36188  1  0
 36189  1  0
 37190  1  0
 37191  1  0
 38192  1  0
 38193  1  0
 39194  1  0
 41195  1  0
 41196  1  0
 42197  1  0
 42198  1  0
 45199  1  0
 46200  1  1
 47201  1  0
 47202  1  0
 48203  1  0
 48204  1  0
 49205  1  0
 49206  1  0
 50207  1  0
 52208  1  0
 52209  1  0
 53210  1  0
 53211  1  0
 56212  1  0
 57213  1  1
 58214  1  0
 58215  1  0
 59216  1  0
 59217  1  0
 60218  1  0
 60219  1  0
 61220  1  0
 63221  1  0
 63222  1  0
 64223  1  0
 64224  1  0
 67225  1  0
 68226  1  1
 69227  1  0
 69228  1  0
 70229  1  0
 70230  1  0
 71231  1  0
 71232  1  0
 72233  1  0
 74234  1  0
 74235  1  0
 75236  1  0
 75237  1  0
 78238  1  0
 80239  1  0
 80240  1  0
 81241  1  0
 81242  1  0
 82243  1  0
 82244  1  0
 83245  1  0
 84246  1  0
 84247  1  0
 84248  1  0
 87249  1  0
 88250  1  6
 89251  1  0
 89252  1  0
 90253  1  0
 90254  1  0
 91255  1  0
 91256  1  0
 92257  1  0
 94258  1  0
 94259  1  0
 95260  1  0
 95261  1  0
 98262  1  0
 99263  1  6
100264  1  0
100265  1  0
101266  1  0
101267  1  0
102268  1  0
102269  1  0
103270  1  0
105271  1  0
105272  1  0
106273  1  0
106274  1  0
109275  1  0
110276  1  6
111277  1  0
111278  1  0
112279  1  0
112280  1  0
113281  1  0
113282  1  0
114283  1  0
116284  1  0
116285  1  0
117286  1  0
117287  1  0
120288  1  0
121289  1  6
122290  1  0
122291  1  0
124292  1  0
125293  1  0
127294  1  0
128295  1  0
129296  1  0
130297  1  0
134298  1  0
135299  1  6
136300  1  0
136301  1  0
137302  1  0
137303  1  0
138304  1  0
138305  1  0
139306  1  0
141307  1  0
141308  1  0
142309  1  0
142310  1  0
145311  1  0
146312  1  6
147313  1  0
147314  1  0
148315  1  0
148316  1  0
149317  1  0
149318  1  0
150319  1  0
152320  1  0
152321  1  0
153322  1  0
153323  1  0
156324  1  0
158325  1  0
158326  1  0
159327  1  0
159328  1  0
160329  1  0
160330  1  0
161331  1  0
161332  1  0
162333  1  0
162334  1  0
163335  1  0
163336  1  0
164337  1  0
165338  1  0
165339  1  0
165340  1  0
M  CHG  8  41   1  52   1  63   1  74   1  94   1 105   1 116   1 141   1
M  CHG  2 152   1 168  -1
M  END
