
     RDKit          2D

353360  0  0  0  0  0  0  0  0999 V2000
  -28.8125    0.0674    0.0000 C   0  0  0  0  0  0  0  0  0  0  0  0
  -30.0674   -0.7543    0.0000 N   0  0  0  0  0  0  0  0  0  0  0  0
  -31.4065   -0.0784    0.0000 C   0  0  0  0  0  0  0  0  0  0  0  0
  -31.4907    1.4193    0.0000 C   0  0  0  0  0  0  0  0  0  0  0  0
  -32.8298    2.0952    0.0000 C   0  0  0  0  0  0  0  0  0  0  0  0
  -34.0847    1.2735    0.0000 C   0  0  0  0  0  0  0  0  0  0  0  0
  -34.0005   -0.2242    0.0000 C   0  0  0  0  0  0  0  0  0  0  0  0
  -32.6614   -0.9001    0.0000 C   0  0  0  0  0  0  0  0  0  0  0  0
  -35.3988   -0.7670    0.0000 C   0  0  0  0  0  0  0  0  0  0  0  0
  -36.3472    0.3951    0.0000 O   0  0  0  0  0  0  0  0  0  0  0  0
  -35.5350    1.6562    0.0000 C   0  0  0  0  0  0  0  0  0  0  0  0
  -36.0779    3.0545    0.0000 O   0  0  0  0  0  0  0  0  0  0  0  0
  -36.8462   -1.1607    0.0000 C   0  0  0  0  0  0  0  0  0  0  0  0
  -37.2290   -2.6111    0.0000 C   0  0  0  0  0  0  0  0  0  0  0  0
  -38.6764   -3.0048    0.0000 C   0  0  0  0  0  0  0  0  0  0  0  0
  -39.7411   -1.9481    0.0000 C   0  0  0  0  0  0  0  0  0  0  0  0
  -39.3583   -0.4978    0.0000 C   0  0  0  0  0  0  0  0  0  0  0  0
  -37.9109   -0.1041    0.0000 C   0  0  0  0  0  0  0  0  0  0  0  0
  -41.1885   -2.3419    0.0000 O   0  0  0  0  0  0  0  0  0  0  0  0
  -36.1643   -3.6677    0.0000 O   0  0  0  0  0  0  0  0  0  0  0  0
  -34.7169   -3.2740    0.0000 C   0  0  0  0  0  0  0  0  0  0  0  0
  -34.3342   -1.8236    0.0000 C   0  0  0  0  0  0  0  0  0  0  0  0
  -33.0654   -2.1068    0.0000 C   0  0  0  0  0  0  0  0  0  0  0  0
  -32.4975   -2.6703    0.0000 C   0  0  0  0  0  0  0  0  0  0  0  0
  -32.7017   -3.4438    0.0000 C   0  0  0  0  0  0  0  0  0  0  0  0
  -33.4736   -3.6538    0.0000 C   0  0  0  0  0  0  0  0  0  0  0  0
  -31.1402   -4.9935    0.0000 O   0  0  0  0  0  0  0  0  0  0  0  0
  -28.8967    1.5651    0.0000 S   0  0  0  0  0  0  0  0  0  0  0  0
  -27.4735   -0.6085    0.0000 N   0  0  0  0  0  0  0  0  0  0  0  0
  -26.2186    0.2132    0.0000 C   0  0  0  0  0  0  0  0  0  0  0  0
  -24.8795   -0.4627    0.0000 C   0  0  0  0  0  0  0  0  0  0  0  0
  -23.6246    0.3590    0.0000 C   0  0  0  0  0  0  0  0  0  0  0  0
  -23.7088    1.8567    0.0000 O   0  0  0  0  0  0  0  0  0  0  0  0
  -22.2855   -0.3169    0.0000 N   0  0  0  0  0  0  0  0  0  0  0  0
  -21.0306    0.5048    0.0000 C   0  0  0  0  0  0  0  0  0  0  0  0
  -20.1324    1.7062    0.0000 C   0  0  0  0  0  0  0  0  0  0  0  0
  -18.6429    1.5290    0.0000 C   0  0  0  0  0  0  0  0  0  0  0  0
  -17.7447    2.7304    0.0000 C   0  0  0  0  0  0  0  0  0  0  0  0
  -16.5298    2.7350    0.0000 O   0  0  0  0  0  0  0  0  0  0  0  0
  -18.3361    4.1089    0.0000 O   0  0  0  0  0  0  0  0  0  0  0  0
  -19.6915   -0.1711    0.0000 C   0  0  0  0  0  0  0  0  0  0  0  0
  -19.6073   -1.6687    0.0000 O   0  0  0  0  0  0  0  0  0  0  0  0
  -18.4366    0.6506    0.0000 N   0  0  0  0  0  0  0  0  0  0  0  0
  -17.0975   -0.0253    0.0000 C   0  0  0  0  0  0  0  0  0  0  0  0
  -16.0704   -1.1184    0.0000 C   0  0  0  0  0  0  0  0  0  0  0  0
  -16.5035   -2.5545    0.0000 C   0  0  0  0  0  0  0  0  0  0  0  0
  -15.4764   -3.6477    0.0000 C   0  0  0  0  0  0  0  0  0  0  0  0
  -15.9095   -5.0838    0.0000 N   0  0  0  0  0  0  0  0  0  0  0  0
  -14.8823   -6.1769    0.0000 C   0  0  0  0  0  0  0  0  0  0  0  0
  -15.3155   -7.6130    0.0000 N   0  0  0  0  0  0  0  0  0  0  0  0
  -13.4221   -5.8340    0.0000 N   0  0  0  0  0  0  0  0  0  0  0  0
  -15.8426    0.7964    0.0000 C   0  0  0  0  0  0  0  0  0  0  0  0
  -15.7624    2.0088    0.0000 O   0  0  0  0  0  0  0  0  0  0  0  0
  -14.5036    0.1205    0.0000 N   0  0  0  0  0  0  0  0  0  0  0  0
  -13.2487    0.9422    0.0000 C   0  0  0  0  0  0  0  0  0  0  0  0
  -12.3505    2.1436    0.0000 C   0  0  0  0  0  0  0  0  0  0  0  0
  -10.8610    1.9664    0.0000 C   0  0  0  0  0  0  0  0  0  0  0  0
   -9.9628    3.1678    0.0000 C   0  0  0  0  0  0  0  0  0  0  0  0
   -9.5219    1.2905    0.0000 C   0  0  0  0  0  0  0  0  0  0  0  0
  -11.9096    0.2663    0.0000 C   0  0  0  0  0  0  0  0  0  0  0  0
  -11.8254   -1.2313    0.0000 O   0  0  0  0  0  0  0  0  0  0  0  0
  -10.6547    1.0880    0.0000 N   0  0  0  0  0  0  0  0  0  0  0  0
   -9.3156    0.4121    0.0000 C   0  0  0  0  0  0  0  0  0  0  0  0
   -8.2884   -0.6810    0.0000 C   0  0  0  0  0  0  0  0  0  0  0  0
   -8.7216   -2.1171    0.0000 C   0  0  0  0  0  0  0  0  0  0  0  0
   -7.6944   -3.2103    0.0000 C   0  0  0  0  0  0  0  0  0  0  0  0
   -8.1275   -4.6464    0.0000 N   0  0  0  0  0  0  0  0  0  0  0  0
   -7.1004   -5.7395    0.0000 C   0  0  0  0  0  0  0  0  0  0  0  0
   -7.5335   -7.1756    0.0000 N   0  0  0  0  0  0  0  0  0  0  0  0
   -5.6401   -5.3966    0.0000 N   0  0  0  0  0  0  0  0  0  0  0  0
   -8.0607    1.2338    0.0000 C   0  0  0  0  0  0  0  0  0  0  0  0
   -7.9617    2.7306    0.0000 O   0  0  0  0  0  0  0  0  0  0  0  0
   -6.7216    0.5579    0.0000 N   0  0  0  0  0  0  0  0  0  0  0  0
   -5.4667    1.3796    0.0000 C   0  0  0  0  0  0  0  0  0  0  0  0
   -4.5685    2.5810    0.0000 C   0  0  0  0  0  0  0  0  0  0  0  0
   -3.0790    2.4038    0.0000 C   0  0  0  0  0  0  0  0  0  0  0  0
   -2.1809    3.6052    0.0000 C   0  0  0  0  0  0  0  0  0  0  0  0
   -0.6914    3.4280    0.0000 N   0  0  0  0  0  0  0  0  0  0  0  0
    0.2068    4.6294    0.0000 C   0  0  0  0  0  0  0  0  0  0  0  0
    1.6963    4.4522    0.0000 N   0  0  0  0  0  0  0  0  0  0  0  0
   -0.3845    6.0079    0.0000 N   0  0  0  0  0  0  0  0  0  0  0  0
   -4.1276    0.7037    0.0000 C   0  0  0  0  0  0  0  0  0  0  0  0
   -4.0435   -0.7939    0.0000 O   0  0  0  0  0  0  0  0  0  0  0  0
   -2.8727    1.5254    0.0000 N   0  0  0  0  0  0  0  0  0  0  0  0
   -1.5336    0.8495    0.0000 C   0  0  0  0  0  0  0  0  0  0  0  0
   -0.5065   -0.2436    0.0000 C   0  0  0  0  0  0  0  0  0  0  0  0
   -0.9396   -1.6797    0.0000 C   0  0  0  0  0  0  0  0  0  0  0  0
    0.0875   -2.7729    0.0000 C   0  0  0  0  0  0  0  0  0  0  0  0
   -0.3456   -4.2090    0.0000 N   0  0  0  0  0  0  0  0  0  0  0  0
    0.6815   -5.3021    0.0000 C   0  0  0  0  0  0  0  0  0  0  0  0
    0.2484   -6.7382    0.0000 N   0  0  0  0  0  0  0  0  0  0  0  0
    2.1418   -4.9592    0.0000 N   0  0  0  0  0  0  0  0  0  0  0  0
   -0.2787    1.6712    0.0000 C   0  0  0  0  0  0  0  0  0  0  0  0
   -0.0741    2.7454    0.0000 O   0  0  0  0  0  0  0  0  0  0  0  0
    1.0603    0.9953    0.0000 N   0  0  0  0  0  0  0  0  0  0  0  0
    2.3152    1.8170    0.0000 C   0  0  0  0  0  0  0  0  0  0  0  0
    3.2134    3.0184    0.0000 C   0  0  0  0  0  0  0  0  0  0  0  0
    4.7134    3.0241    0.0000 C   0  0  0  0  0  0  0  0  0  0  0  0
    3.6465    4.4545    0.0000 C   0  0  0  0  0  0  0  0  0  0  0  0
    5.0541    4.9729    0.0000 C   0  0  0  0  0  0  0  0  0  0  0  0
    3.6543    1.1411    0.0000 C   0  0  0  0  0  0  0  0  0  0  0  0
    3.5553   -0.3556    0.0000 O   0  0  0  0  0  0  0  0  0  0  0  0
    4.9092    1.9628    0.0000 N   0  0  0  0  0  0  0  0  0  0  0  0
    6.2483    1.2869    0.0000 C   0  0  0  0  0  0  0  0  0  0  0  0
    6.6276   -0.1643    0.0000 C   0  0  0  0  0  0  0  0  0  0  0  0
    7.4177   -1.4393    0.0000 C   0  0  0  0  0  0  0  0  0  0  0  0
    8.5486   -2.4248    0.0000 C   0  0  0  0  0  0  0  0  0  0  0  0
    9.9197   -3.0331    0.0000 C   0  0  0  0  0  0  0  0  0  0  0  0
    4.9753    0.4936    0.0000 C   0  0  0  0  0  0  0  0  0  0  0  0
    6.3137    2.7855    0.0000 C   0  0  0  0  0  0  0  0  0  0  0  0
    5.5558    3.0328    0.0000 O   0  0  0  0  0  0  0  0  0  0  0  0
    6.8178    4.1982    0.0000 N   0  0  0  0  0  0  0  0  0  0  0  0
    7.7160    5.3996    0.0000 C   0  0  0  0  0  0  0  0  0  0  0  0
    7.4096    6.8680    0.0000 C   0  0  0  0  0  0  0  0  0  0  0  0
    8.5280    7.8675    0.0000 C   0  0  0  0  0  0  0  0  0  0  0  0
    8.2215    9.3359    0.0000 C   0  0  0  0  0  0  0  0  0  0  0  0
    9.3399   10.3355    0.0000 C   0  0  0  0  0  0  0  0  0  0  0  0
    8.9284    6.2828    0.0000 C   0  0  0  0  0  0  0  0  0  0  0  0
    8.5782    7.7414    0.0000 O   0  0  0  0  0  0  0  0  0  0  0  0
   10.3472    6.7695    0.0000 N   0  0  0  0  0  0  0  0  0  0  0  0
   11.8465    6.8163    0.0000 C   0  0  0  0  0  0  0  0  0  0  0  0
   12.8035    7.9714    0.0000 C   0  0  0  0  0  0  0  0  0  0  0  0
   12.2816    9.3777    0.0000 S   0  0  0  0  0  0  0  0  0  0  0  0
   13.2930    6.4191    0.0000 C   0  0  0  0  0  0  0  0  0  0  0  0
   13.9013    7.7902    0.0000 O   0  0  0  0  0  0  0  0  0  0  0  0
   14.5581    5.6132    0.0000 N   0  0  0  0  0  0  0  0  0  0  0  0
   15.5295    4.4702    0.0000 C   0  0  0  0  0  0  0  0  0  0  0  0
   17.0292    4.4423    0.0000 C   0  0  0  0  0  0  0  0  0  0  0  0
   17.8033    5.7271    0.0000 C   0  0  0  0  0  0  0  0  0  0  0  0
   19.3031    5.6991    0.0000 C   0  0  0  0  0  0  0  0  0  0  0  0
   20.0772    6.9839    0.0000 N   0  0  0  0  0  0  0  0  0  0  0  0
   21.5769    6.9560    0.0000 C   0  0  0  0  0  0  0  0  0  0  0  0
   22.3510    8.2408    0.0000 N   0  0  0  0  0  0  0  0  0  0  0  0
   22.3025    5.6432    0.0000 N   0  0  0  0  0  0  0  0  0  0  0  0
   16.1208    3.0917    0.0000 C   0  0  0  0  0  0  0  0  0  0  0  0
   17.5721    3.4710    0.0000 O   0  0  0  0  0  0  0  0  0  0  0  0
   16.2795    1.6001    0.0000 N   0  0  0  0  0  0  0  0  0  0  0  0
   15.9915    0.1280    0.0000 C   0  0  0  0  0  0  0  0  0  0  0  0
   15.2825   -1.1938    0.0000 C   0  0  0  0  0  0  0  0  0  0  0  0
   14.2153   -2.2479    0.0000 C   0  0  0  0  0  0  0  0  0  0  0  0
   12.8848   -2.9405    0.0000 C   0  0  0  0  0  0  0  0  0  0  0  0
   11.4092   -3.2103    0.0000 C   0  0  0  0  0  0  0  0  0  0  0  0
   17.4518    0.4710    0.0000 C   0  0  0  0  0  0  0  0  0  0  0  0
   16.9047   -1.0619    0.0000 C   0  0  0  0  0  0  0  0  0  0  0  0
   16.6832   -2.5455    0.0000 O   0  0  0  0  0  0  0  0  0  0  0  0
   18.3919   -0.8661    0.0000 N   0  0  0  0  0  0  0  0  0  0  0  0
   19.3051   -2.0561    0.0000 C   0  0  0  0  0  0  0  0  0  0  0  0
   19.7562   -3.4866    0.0000 C   0  0  0  0  0  0  0  0  0  0  0  0
   18.7429   -4.5926    0.0000 C   0  0  0  0  0  0  0  0  0  0  0  0
   19.0420   -6.0625    0.0000 C   0  0  0  0  0  0  0  0  0  0  0  0
   17.7365   -6.8012    0.0000 N   0  0  0  0  0  0  0  0  0  0  0  0
   16.6306   -5.7878    0.0000 C   0  0  0  0  0  0  0  0  0  0  0  0
   17.2525   -4.4229    0.0000 N   0  0  0  0  0  0  0  0  0  0  0  0
   20.7923   -1.8602    0.0000 C   0  0  0  0  0  0  0  0  0  0  0  0
   21.3662   -0.4744    0.0000 O   0  0  0  0  0  0  0  0  0  0  0  0
   21.7055   -3.0502    0.0000 N   0  0  0  0  0  0  0  0  0  0  0  0
   23.1926   -2.8543    0.0000 C   0  0  0  0  0  0  0  0  0  0  0  0
   24.5231   -2.1617    0.0000 C   0  0  0  0  0  0  0  0  0  0  0  0
   25.7882   -2.9675    0.0000 C   0  0  0  0  0  0  0  0  0  0  0  0
   27.1838   -2.4177    0.0000 C   0  0  0  0  0  0  0  0  0  0  0  0
   28.1380   -3.5751    0.0000 N   0  0  0  0  0  0  0  0  0  0  0  0
   27.3321   -4.8402    0.0000 C   0  0  0  0  0  0  0  0  0  0  0  0
   25.8799   -4.4647    0.0000 N   0  0  0  0  0  0  0  0  0  0  0  0
   24.1058   -4.0443    0.0000 C   0  0  0  0  0  0  0  0  0  0  0  0
   23.5319   -5.4302    0.0000 O   0  0  0  0  0  0  0  0  0  0  0  0
   25.5930   -3.8485    0.0000 N   0  0  0  0  0  0  0  0  0  0  0  0
   26.5062   -5.0384    0.0000 C   0  0  0  0  0  0  0  0  0  0  0  0
   26.9573   -6.4690    0.0000 C   0  0  0  0  0  0  0  0  0  0  0  0
   25.9440   -7.5750    0.0000 O   0  0  0  0  0  0  0  0  0  0  0  0
   27.9933   -4.8426    0.0000 C   0  0  0  0  0  0  0  0  0  0  0  0
   28.8856   -3.6368    0.0000 O   0  0  0  0  0  0  0  0  0  0  0  0
   28.9065   -6.0326    0.0000 N   0  0  0  0  0  0  0  0  0  0  0  0
   30.3937   -5.8367    0.0000 C   0  0  0  0  0  0  0  0  0  0  0  0
   31.7242   -5.1440    0.0000 C   0  0  0  0  0  0  0  0  0  0  0  0
   32.7375   -4.0381    0.0000 O   0  0  0  0  0  0  0  0  0  0  0  0
   32.9893   -5.9499    0.0000 C   0  0  0  0  0  0  0  0  0  0  0  0
   31.3069   -7.0267    0.0000 C   0  0  0  0  0  0  0  0  0  0  0  0
   32.8068   -7.0136    0.0000 O   0  0  0  0  0  0  0  0  0  0  0  0
   30.7329   -8.4125    0.0000 O   0  0  0  0  0  0  0  0  0  0  0  0
  -29.8013   -2.2305    0.0000 H   0  0  0  0  0  0  0  0  0  0  0  0
  -30.2358    2.2410    0.0000 H   0  0  0  0  0  0  0  0  0  0  0  0
  -32.9140    3.5928    0.0000 H   0  0  0  0  0  0  0  0  0  0  0  0
  -32.2174   -2.3328    0.0000 H   0  0  0  0  0  0  0  0  0  0  0  0
  -39.0591   -4.4551    0.0000 H   0  0  0  0  0  0  0  0  0  0  0  0
  -40.4230    0.5588    0.0000 H   0  0  0  0  0  0  0  0  0  0  0  0
  -37.5282    1.3463    0.0000 H   0  0  0  0  0  0  0  0  0  0  0  0
  -42.2531   -1.2852    0.0000 H   0  0  0  0  0  0  0  0  0  0  0  0
  -32.5040    0.0204    0.0000 H   0  0  0  0  0  0  0  0  0  0  0  0
  -30.3375   -2.2722    0.0000 H   0  0  0  0  0  0  0  0  0  0  0  0
  -34.0350   -5.7810    0.0000 H   0  0  0  0  0  0  0  0  0  0  0  0
  -31.5229   -6.4439    0.0000 H   0  0  0  0  0  0  0  0  0  0  0  0
  -27.3893   -2.1061    0.0000 H   0  0  0  0  0  0  0  0  0  0  0  0
  -25.3204    1.4146    0.0000 H   0  0  0  0  0  0  0  0  0  0  0  0
  -27.2457    1.3064    0.0000 H   0  0  0  0  0  0  0  0  0  0  0  0
  -23.8523   -1.5558    0.0000 H   0  0  0  0  0  0  0  0  0  0  0  0
  -25.7777   -1.6640    0.0000 H   0  0  0  0  0  0  0  0  0  0  0  0
  -22.2013   -1.8145    0.0000 H   0  0  0  0  0  0  0  0  0  0  0  0
  -22.0577    1.5980    0.0000 H   0  0  0  0  0  0  0  0  0  0  0  0
  -19.6993    3.1423    0.0000 H   0  0  0  0  0  0  0  0  0  0  0  0
  -21.4715    2.3821    0.0000 H   0  0  0  0  0  0  0  0  0  0  0  0
  -17.3038    0.8531    0.0000 H   0  0  0  0  0  0  0  0  0  0  0  0
  -18.3510    0.0577    0.0000 H   0  0  0  0  0  0  0  0  0  0  0  0
  -18.1559    2.1241    0.0000 H   0  0  0  0  0  0  0  0  0  0  0  0
  -18.1355   -1.1082    0.0000 H   0  0  0  0  0  0  0  0  0  0  0  0
  -14.7313   -1.7943    0.0000 H   0  0  0  0  0  0  0  0  0  0  0  0
  -14.9082   -0.1701    0.0000 H   0  0  0  0  0  0  0  0  0  0  0  0
  -17.4017   -3.7559    0.0000 H   0  0  0  0  0  0  0  0  0  0  0  0
  -17.9150   -2.0469    0.0000 H   0  0  0  0  0  0  0  0  0  0  0  0
  -14.1373   -4.3236    0.0000 H   0  0  0  0  0  0  0  0  0  0  0  0
  -14.4384   -2.5648    0.0000 H   0  0  0  0  0  0  0  0  0  0  0  0
  -17.3698   -5.4267    0.0000 H   0  0  0  0  0  0  0  0  0  0  0  0
  -14.2883   -8.7062    0.0000 H   0  0  0  0  0  0  0  0  0  0  0  0
  -16.7757   -7.9560    0.0000 H   0  0  0  0  0  0  0  0  0  0  0  0
  -12.3949   -6.9271    0.0000 H   0  0  0  0  0  0  0  0  0  0  0  0
  -12.9890   -4.3979    0.0000 H   0  0  0  0  0  0  0  0  0  0  0  0
  -14.2375   -1.3557    0.0000 H   0  0  0  0  0  0  0  0  0  0  0  0
  -14.2758    2.0354    0.0000 H   0  0  0  0  0  0  0  0  0  0  0  0
  -12.0956    3.6218    0.0000 H   0  0  0  0  0  0  0  0  0  0  0  0
  -13.6896    2.8195    0.0000 H   0  0  0  0  0  0  0  0  0  0  0  0
  -10.5690    0.4951    0.0000 H   0  0  0  0  0  0  0  0  0  0  0  0
   -8.4747    3.3563    0.0000 H   0  0  0  0  0  0  0  0  0  0  0  0
   -9.5297    4.6039    0.0000 H   0  0  0  0  0  0  0  0  0  0  0  0
  -11.2095    4.0019    0.0000 H   0  0  0  0  0  0  0  0  0  0  0  0
   -9.0778   -0.1422    0.0000 H   0  0  0  0  0  0  0  0  0  0  0  0
   -8.0679    1.6590    0.0000 H   0  0  0  0  0  0  0  0  0  0  0  0
   -8.9169    2.6631    0.0000 H   0  0  0  0  0  0  0  0  0  0  0  0
  -10.3740    2.5615    0.0000 H   0  0  0  0  0  0  0  0  0  0  0  0
  -10.3535   -0.6708    0.0000 H   0  0  0  0  0  0  0  0  0  0  0  0
   -6.9494   -1.3569    0.0000 H   0  0  0  0  0  0  0  0  0  0  0  0
   -7.0193    0.1186    0.0000 H   0  0  0  0  0  0  0  0  0  0  0  0
   -9.6197   -3.3185    0.0000 H   0  0  0  0  0  0  0  0  0  0  0  0
  -10.1331   -1.6095    0.0000 H   0  0  0  0  0  0  0  0  0  0  0  0
   -6.3553   -3.8862    0.0000 H   0  0  0  0  0  0  0  0  0  0  0  0
   -6.6565   -2.1274    0.0000 H   0  0  0  0  0  0  0  0  0  0  0  0
   -9.5878   -4.9894    0.0000 H   0  0  0  0  0  0  0  0  0  0  0  0
   -6.5064   -8.2688    0.0000 H   0  0  0  0  0  0  0  0  0  0  0  0
   -8.9938   -7.5186    0.0000 H   0  0  0  0  0  0  0  0  0  0  0  0
   -4.6130   -6.4897    0.0000 H   0  0  0  0  0  0  0  0  0  0  0  0
   -5.2070   -3.9605    0.0000 H   0  0  0  0  0  0  0  0  0  0  0  0
   -6.4555   -0.9183    0.0000 H   0  0  0  0  0  0  0  0  0  0  0  0
   -6.4939    2.4728    0.0000 H   0  0  0  0  0  0  0  0  0  0  0  0
   -4.3137    4.0592    0.0000 H   0  0  0  0  0  0  0  0  0  0  0  0
   -5.9076    3.2569    0.0000 H   0  0  0  0  0  0  0  0  0  0  0  0
   -1.7400    1.7279    0.0000 H   0  0  0  0  0  0  0  0  0  0  0  0
   -2.7871    0.9325    0.0000 H   0  0  0  0  0  0  0  0  0  0  0  0
   -1.7477    5.0413    0.0000 H   0  0  0  0  0  0  0  0  0  0  0  0
   -3.4276    4.4393    0.0000 H   0  0  0  0  0  0  0  0  0  0  0  0
    0.2160    2.2336    0.0000 H   0  0  0  0  0  0  0  0  0  0  0  0
    2.5945    5.6536    0.0000 H   0  0  0  0  0  0  0  0  0  0  0  0
    2.1369    3.0066    0.0000 H   0  0  0  0  0  0  0  0  0  0  0  0
    0.5137    7.2093    0.0000 H   0  0  0  0  0  0  0  0  0  0  0  0
   -1.8740    6.1851    0.0000 H   0  0  0  0  0  0  0  0  0  0  0  0
   -2.5920    2.9989    0.0000 H   0  0  0  0  0  0  0  0  0  0  0  0
   -2.5716   -0.2334    0.0000 H   0  0  0  0  0  0  0  0  0  0  0  0
    0.8326   -0.9195    0.0000 H   0  0  0  0  0  0  0  0  0  0  0  0
    0.6557    0.7047    0.0000 H   0  0  0  0  0  0  0  0  0  0  0  0
   -1.8378   -2.8811    0.0000 H   0  0  0  0  0  0  0  0  0  0  0  0
   -2.3511   -1.1721    0.0000 H   0  0  0  0  0  0  0  0  0  0  0  0
    1.4266   -3.4488    0.0000 H   0  0  0  0  0  0  0  0  0  0  0  0
    1.1254   -1.6900    0.0000 H   0  0  0  0  0  0  0  0  0  0  0  0
   -1.8059   -4.5520    0.0000 H   0  0  0  0  0  0  0  0  0  0  0  0
    1.2756   -7.8314    0.0000 H   0  0  0  0  0  0  0  0  0  0  0  0
   -1.2118   -7.0812    0.0000 H   0  0  0  0  0  0  0  0  0  0  0  0
    3.1690   -6.0523    0.0000 H   0  0  0  0  0  0  0  0  0  0  0  0
    2.5749   -3.5231    0.0000 H   0  0  0  0  0  0  0  0  0  0  0  0
    1.3264   -0.4809    0.0000 H   0  0  0  0  0  0  0  0  0  0  0  0
    1.2881    2.9102    0.0000 H   0  0  0  0  0  0  0  0  0  0  0  0
    1.7506    3.3502    0.0000 H   0  0  0  0  0  0  0  0  0  0  0  0
    5.6235    4.0427    0.0000 H   0  0  0  0  0  0  0  0  0  0  0  0
    6.2103    2.5123    0.0000 H   0  0  0  0  0  0  0  0  0  0  0  0
    4.8796    1.3537    0.0000 H   0  0  0  0  0  0  0  0  0  0  0  0
    3.5624    5.9521    0.0000 H   0  0  0  0  0  0  0  0  0  0  0  0
    2.1897    4.8119    0.0000 H   0  0  0  0  0  0  0  0  0  0  0  0
    5.2204    6.3137    0.0000 H   0  0  0  0  0  0  0  0  0  0  0  0
    6.5949    4.9860    0.0000 H   0  0  0  0  0  0  0  0  0  0  0  0
    5.1910    3.2998    0.0000 H   0  0  0  0  0  0  0  0  0  0  0  0
    4.6431    3.4390    0.0000 H   0  0  0  0  0  0  0  0  0  0  0  0
    5.1291   -0.0953    0.0000 H   0  0  0  0  0  0  0  0  0  0  0  0
    5.7904   -1.4090    0.0000 H   0  0  0  0  0  0  0  0  0  0  0  0
    6.0222   -1.9892    0.0000 H   0  0  0  0  0  0  0  0  0  0  0  0
    6.8128   -2.8119    0.0000 H   0  0  0  0  0  0  0  0  0  0  0  0
    7.2717   -3.2118    0.0000 H   0  0  0  0  0  0  0  0  0  0  0  0
    8.5580   -3.9248    0.0000 H   0  0  0  0  0  0  0  0  0  0  0  0
    9.5225   -4.4796    0.0000 H   0  0  0  0  0  0  0  0  0  0  0  0
    4.9096   -1.1711    0.0000 H   0  0  0  0  0  0  0  0  0  0  0  0
    3.7499   -0.2976    0.0000 H   0  0  0  0  0  0  0  0  0  0  0  0
    3.9799    1.3578    0.0000 H   0  0  0  0  0  0  0  0  0  0  0  0
    5.7069    5.2061    0.0000 H   0  0  0  0  0  0  0  0  0  0  0  0
    6.2515    5.7242    0.0000 H   0  0  0  0  0  0  0  0  0  0  0  0
    6.4699    8.0371    0.0000 H   0  0  0  0  0  0  0  0  0  0  0  0
    5.9234    6.6648    0.0000 H   0  0  0  0  0  0  0  0  0  0  0  0
    9.9208    8.4243    0.0000 H   0  0  0  0  0  0  0  0  0  0  0  0
    9.6032    6.8216    0.0000 H   0  0  0  0  0  0  0  0  0  0  0  0
    7.4313   10.6109    0.0000 H   0  0  0  0  0  0  0  0  0  0  0  0
    6.7712    8.9531    0.0000 H   0  0  0  0  0  0  0  0  0  0  0  0
    9.0335   11.8038    0.0000 H   0  0  0  0  0  0  0  0  0  0  0  0
   10.7328   10.8922    0.0000 H   0  0  0  0  0  0  0  0  0  0  0  0
   10.4151    9.2896    0.0000 H   0  0  0  0  0  0  0  0  0  0  0  0
   10.4426    8.2665    0.0000 H   0  0  0  0  0  0  0  0  0  0  0  0
   11.1872    8.1636    0.0000 H   0  0  0  0  0  0  0  0  0  0  0  0
   14.0978    8.7295    0.0000 H   0  0  0  0  0  0  0  0  0  0  0  0
   14.0225    7.0974    0.0000 H   0  0  0  0  0  0  0  0  0  0  0  0
   13.2385   10.5328    0.0000 H   0  0  0  0  0  0  0  0  0  0  0  0
   15.5435    6.7441    0.0000 H   0  0  0  0  0  0  0  0  0  0  0  0
   16.0018    5.8939    0.0000 H   0  0  0  0  0  0  0  0  0  0  0  0
   18.3528    3.7364    0.0000 H   0  0  0  0  0  0  0  0  0  0  0  0
   17.1060    2.9442    0.0000 H   0  0  0  0  0  0  0  0  0  0  0  0
   18.0913    7.1992    0.0000 H   0  0  0  0  0  0  0  0  0  0  0  0
   16.4798    6.4329    0.0000 H   0  0  0  0  0  0  0  0  0  0  0  0
   20.7028    5.1599    0.0000 H   0  0  0  0  0  0  0  0  0  0  0  0
   19.1967    4.2029    0.0000 H   0  0  0  0  0  0  0  0  0  0  0  0
   19.3515    8.2967    0.0000 H   0  0  0  0  0  0  0  0  0  0  0  0
   23.8507    8.2128    0.0000 H   0  0  0  0  0  0  0  0  0  0  0  0
   21.6254    9.5536    0.0000 H   0  0  0  0  0  0  0  0  0  0  0  0
   23.8023    5.6152    0.0000 H   0  0  0  0  0  0  0  0  0  0  0  0
   21.5284    4.3583    0.0000 H   0  0  0  0  0  0  0  0  0  0  0  0
   17.7781    1.5348    0.0000 H   0  0  0  0  0  0  0  0  0  0  0  0
   15.8043   -2.6001    0.0000 H   0  0  0  0  0  0  0  0  0  0  0  0
   16.7096   -1.6555    0.0000 H   0  0  0  0  0  0  0  0  0  0  0  0
   14.4814   -3.7241    0.0000 H   0  0  0  0  0  0  0  0  0  0  0  0
   15.4429   -3.1098    0.0000 H   0  0  0  0  0  0  0  0  0  0  0  0
   12.5238   -4.3964    0.0000 H   0  0  0  0  0  0  0  0  0  0  0  0
   13.9415   -4.0051    0.0000 H   0  0  0  0  0  0  0  0  0  0  0  0
   11.4560   -4.7096    0.0000 H   0  0  0  0  0  0  0  0  0  0  0  0
   18.7129   -0.3411    0.0000 H   0  0  0  0  0  0  0  0  0  0  0  0
   18.5972    1.4396    0.0000 H   0  0  0  0  0  0  0  0  0  0  0  0
   17.2116    1.9516    0.0000 H   0  0  0  0  0  0  0  0  0  0  0  0
   19.1305    0.4395    0.0000 H   0  0  0  0  0  0  0  0  0  0  0  0
   17.9746   -2.7488    0.0000 H   0  0  0  0  0  0  0  0  0  0  0  0
   20.5176   -4.7791    0.0000 H   0  0  0  0  0  0  0  0  0  0  0  0
   21.2148   -3.1365    0.0000 H   0  0  0  0  0  0  0  0  0  0  0  0
   20.4070   -6.6844    0.0000 H   0  0  0  0  0  0  0  0  0  0  0  0
   17.5668   -8.2915    0.0000 H   0  0  0  0  0  0  0  0  0  0  0  0
   15.1607   -6.0870    0.0000 H   0  0  0  0  0  0  0  0  0  0  0  0
   21.3047   -4.4957    0.0000 H   0  0  0  0  0  0  0  0  0  0  0  0
   22.7415   -1.4238    0.0000 H   0  0  0  0  0  0  0  0  0  0  0  0
   25.5364   -1.0557    0.0000 H   0  0  0  0  0  0  0  0  0  0  0  0
   23.6099   -0.9717    0.0000 H   0  0  0  0  0  0  0  0  0  0  0  0
   27.5593   -0.9655    0.0000 H   0  0  0  0  0  0  0  0  0  0  0  0
   29.6352   -3.4835    0.0000 H   0  0  0  0  0  0  0  0  0  0  0  0
   28.0479   -6.1584    0.0000 H   0  0  0  0  0  0  0  0  0  0  0  0
   26.4852   -2.6427    0.0000 H   0  0  0  0  0  0  0  0  0  0  0  0
   25.1757   -5.7311    0.0000 H   0  0  0  0  0  0  0  0  0  0  0  0
   27.7186   -7.7614    0.0000 H   0  0  0  0  0  0  0  0  0  0  0  0
   28.4477   -6.2992    0.0000 H   0  0  0  0  0  0  0  0  0  0  0  0
   26.3951   -9.0055    0.0000 H   0  0  0  0  0  0  0  0  0  0  0  0
   28.5058   -7.4781    0.0000 H   0  0  0  0  0  0  0  0  0  0  0  0
   29.9426   -4.4062    0.0000 H   0  0  0  0  0  0  0  0  0  0  0  0
   30.8110   -3.9540    0.0000 H   0  0  0  0  0  0  0  0  0  0  0  0
   34.2306   -4.1817    0.0000 H   0  0  0  0  0  0  0  0  0  0  0  0
   34.3943   -5.4246    0.0000 H   0  0  0  0  0  0  0  0  0  0  0  0
   33.9025   -7.1399    0.0000 H   0  0  0  0  0  0  0  0  0  0  0  0
   32.4397   -7.3456    0.0000 H   0  0  0  0  0  0  0  0  0  0  0  0
  1  2  1  0
  2  3  1  0
  3  4  2  0
  4  5  1  0
  5  6  2  0
  6  7  1  0
  7  8  2  0
  7  9  1  0
  9 10  1  0
 10 11  1  0
 11 12  2  0
  9 13  1  0
 13 14  1  0
 14 15  2  0
 15 16  1  0
 16 17  2  0
 17 18  1  0
 16 19  1  0
 14 20  1  0
 20 21  1  0
 21 22  2  0
 22 23  1  0
 23 24  2  0
 24 25  1  0
 25 26  2  0
 25 27  1  0
  1 28  2  0
  1 29  1  0
 29 30  1  0
 30 31  1  0
 31 32  1  0
 32 33  2  0
 32 34  1  0
 34 35  1  0
 35 36  1  0
 36 37  1  0
 37 38  1  0
 38 39  2  0
 38 40  1  0
 35 41  1  0
 41 42  2  0
 41 43  1  0
 43 44  1  0
 44 45  1  0
 45 46  1  0
 46 47  1  0
 47 48  1  0
 48 49  1  0
 49 50  2  3
 49 51  1  0
 44 52  1  0
 52 53  2  0
 52 54  1  0
 54 55  1  0
 55 56  1  0
 56 57  1  0
 57 58  1  0
 57 59  1  0
 55 60  1  0
 60 61  2  0
 60 62  1  0
 62 63  1  0
 63 64  1  0
 64 65  1  0
 65 66  1  0
 66 67  1  0
 67 68  1  0
 68 69  2  3
 68 70  1  0
 63 71  1  0
 71 72  2  0
 71 73  1  0
 73 74  1  0
 74 75  1  0
 75 76  1  0
 76 77  1  0
 77 78  1  0
 78 79  1  0
 79 80  2  3
 79 81  1  0
 74 82  1  0
 82 83  2  0
 82 84  1  0
 84 85  1  0
 85 86  1  0
 86 87  1  0
 87 88  1  0
 88 89  1  0
 89 90  1  0
 90 91  2  3
 90 92  1  0
 85 93  1  0
 93 94  2  0
 93 95  1  0
 95 96  1  0
 96 97  1  0
 97 98  1  0
 97 99  1  0
 99100  1  0
 96101  1  0
101102  2  0
101103  1  0
104103  1  6
104105  1  0
105106  1  0
106107  1  0
107108  1  0
104109  1  0
104110  1  0
110111  2  0
110112  1  0
112113  1  0
113114  1  0
114115  1  0
115116  1  0
116117  1  0
113118  1  0
118119  2  0
118120  1  0
120121  1  0
121122  1  0
122123  1  0
121124  1  0
124125  2  0
124126  1  0
126127  1  0
127128  1  0
128129  1  0
129130  1  0
130131  1  0
131132  1  0
132133  2  3
132134  1  0
127135  1  0
135136  2  0
135137  1  0
137138  1  0
138139  1  0
139140  1  0
140141  1  0
141142  1  0
138143  1  0
138144  1  6
144145  2  0
144146  1  0
146147  1  0
147148  1  0
148149  1  0
149150  2  0
150151  1  0
151152  1  0
152153  2  0
147154  1  0
154155  2  0
154156  1  0
156157  1  0
157158  1  0
158159  1  0
159160  2  0
160161  1  0
161162  1  0
162163  2  0
157164  1  0
164165  2  0
164166  1  0
166167  1  0
167168  1  0
168169  1  0
167170  1  0
170171  2  0
170172  1  0
172173  1  0
173174  1  0
174175  1  0
174176  1  0
173177  1  0
177178  2  0
177179  1  0
  8  3  1  0
153149  1  0
163159  1  0
 11  6  1  0
 18 13  2  0
108142  2  0
 22  9  1  0
 26 21  1  0
  2180  1  0
  4181  1  0
  5182  1  0
  8183  1  0
 15184  1  0
 17185  1  0
 18186  1  0
 19187  1  0
 23188  1  0
 24189  1  0
 26190  1  0
 27191  1  0
 29192  1  0
 30193  1  0
 30194  1  0
 31195  1  0
 31196  1  0
 34197  1  0
 35198  1  1
 36199  1  0
 36200  1  0
 37201  1  0
 37202  1  0
 43203  1  0
 44204  1  6
 45205  1  0
 45206  1  0
 46207  1  0
 46208  1  0
 47209  1  0
 47210  1  0
 48211  1  0
 50212  1  0
 50213  1  0
 51214  1  0
 51215  1  0
 54216  1  0
 55217  1  1
 56218  1  0
 56219  1  0
 57220  1  0
 58221  1  0
 58222  1  0
 58223  1  0
 59224  1  0
 59225  1  0
 59226  1  0
 62227  1  0
 63228  1  6
 64229  1  0
 64230  1  0
 65231  1  0
 65232  1  0
 66233  1  0
 66234  1  0
 67235  1  0
 69236  1  0
 69237  1  0
 70238  1  0
 70239  1  0
 73240  1  0
 74241  1  1
 75242  1  0
 75243  1  0
 76244  1  0
 76245  1  0
 77246  1  0
 77247  1  0
 78248  1  0
 80249  1  0
 80250  1  0
 81251  1  0
 81252  1  0
 84253  1  0
 85254  1  6
 86255  1  0
 86256  1  0
 87257  1  0
 87258  1  0
 88259  1  0
 88260  1  0
 89261  1  0
 91262  1  0
 91263  1  0
 92264  1  0
 92265  1  0
 95266  1  0
 96267  1  1
 97268  1  1
 98269  1  0
 98270  1  0
 98271  1  0
 99272  1  0
 99273  1  0
100274  1  0
100275  1  0
100276  1  0
103277  1  0
105278  1  0
105279  1  0
106280  1  0
106281  1  0
107282  1  0
107283  1  0
108284  1  0
109285  1  0
109286  1  0
109287  1  0
112288  1  0
113289  1  6
114290  1  0
114291  1  0
115292  1  0
115293  1  0
116294  1  0
116295  1  0
117296  1  0
117297  1  0
117298  1  0
120299  1  0
121300  1  1
122301  1  0
122302  1  0
123303  1  0
126304  1  0
127305  1  1
128306  1  0
128307  1  0
129308  1  0
129309  1  0
130310  1  0
130311  1  0
131312  1  0
133313  1  0
133314  1  0
134315  1  0
134316  1  0
137317  1  0
139318  1  0
139319  1  0
140320  1  0
140321  1  0
141322  1  0
141323  1  0
142324  1  0
143325  1  0
143326  1  0
143327  1  0
146328  1  0
147329  1  6
148330  1  0
148331  1  0
150332  1  0
151333  1  0
152334  1  0
156335  1  0
157336  1  1
158337  1  0
158338  1  0
160339  1  0
161340  1  0
162341  1  0
166342  1  0
167343  1  6
168344  1  0
168345  1  0
169346  1  0
172347  1  0
173348  1  1
174349  1  1
175350  1  0
176351  1  0
176352  1  0
176353  1  0
M  CHG  7  40  -1  50   1  69   1  80   1  91   1 133   1 179  -1
M  END
