
     RDKit          2D

420428  0  0  0  0  0  0  0  0999 V2000
   25.4569   -4.0430    0.0000 C   0  0  0  0  0  0  0  0  0  0  0  0
   26.8350   -3.4506    0.0000 N   0  0  0  0  0  0  0  0  0  0  0  0
   28.0371   -4.3478    0.0000 C   0  0  0  0  0  0  0  0  0  0  0  0
   27.8611   -5.8374    0.0000 C   0  0  0  0  0  0  0  0  0  0  0  0
   29.0632   -6.7346    0.0000 C   0  0  0  0  0  0  0  0  0  0  0  0
   30.4413   -6.1422    0.0000 C   0  0  0  0  0  0  0  0  0  0  0  0
   30.6172   -4.6525    0.0000 C   0  0  0  0  0  0  0  0  0  0  0  0
   29.4151   -3.7553    0.0000 C   0  0  0  0  0  0  0  0  0  0  0  0
   32.0883   -4.3595    0.0000 C   0  0  0  0  0  0  0  0  0  0  0  0
   32.8216   -5.6681    0.0000 O   0  0  0  0  0  0  0  0  0  0  0  0
   31.8036   -6.7698    0.0000 C   0  0  0  0  0  0  0  0  0  0  0  0
   32.0966   -8.2409    0.0000 O   0  0  0  0  0  0  0  0  0  0  0  0
   33.5820   -4.2219    0.0000 C   0  0  0  0  0  0  0  0  0  0  0  0
   34.2096   -2.8595    0.0000 C   0  0  0  0  0  0  0  0  0  0  0  0
   35.7033   -2.7219    0.0000 C   0  0  0  0  0  0  0  0  0  0  0  0
   36.5693   -3.9466    0.0000 C   0  0  0  0  0  0  0  0  0  0  0  0
   35.9417   -5.3090    0.0000 C   0  0  0  0  0  0  0  0  0  0  0  0
   34.4480   -5.4466    0.0000 C   0  0  0  0  0  0  0  0  0  0  0  0
   38.0630   -3.8090    0.0000 O   0  0  0  0  0  0  0  0  0  0  0  0
   33.3436   -1.6348    0.0000 O   0  0  0  0  0  0  0  0  0  0  0  0
   31.8499   -1.7724    0.0000 C   0  0  0  0  0  0  0  0  0  0  0  0
   31.2223   -3.1348    0.0000 C   0  0  0  0  0  0  0  0  0  0  0  0
   30.0215   -2.6366    0.0000 C   0  0  0  0  0  0  0  0  0  0  0  0
   29.5596   -1.9834    0.0000 C   0  0  0  0  0  0  0  0  0  0  0  0
   29.8944   -1.2568    0.0000 C   0  0  0  0  0  0  0  0  0  0  0  0
   30.6910   -1.1834    0.0000 C   0  0  0  0  0  0  0  0  0  0  0  0
   28.6242    0.5395    0.0000 O   0  0  0  0  0  0  0  0  0  0  0  0
   25.2810   -5.5327    0.0000 S   0  0  0  0  0  0  0  0  0  0  0  0
   24.2548   -3.1459    0.0000 N   0  0  0  0  0  0  0  0  0  0  0  0
   22.8768   -3.7383    0.0000 C   0  0  0  0  0  0  0  0  0  0  0  0
   21.6747   -2.8411    0.0000 C   0  0  0  0  0  0  0  0  0  0  0  0
   20.2966   -3.4336    0.0000 C   0  0  0  0  0  0  0  0  0  0  0  0
   20.3003   -4.2307    0.0000 O   0  0  0  0  0  0  0  0  0  0  0  0
   19.0945   -2.5364    0.0000 N   0  0  0  0  0  0  0  0  0  0  0  0
   17.7165   -3.1289    0.0000 C   0  0  0  0  0  0  0  0  0  0  0  0
   18.5392   -4.3831    0.0000 C   0  0  0  0  0  0  0  0  0  0  0  0
   18.8834   -5.8431    0.0000 O   0  0  0  0  0  0  0  0  0  0  0  0
   20.0360   -4.4809    0.0000 C   0  0  0  0  0  0  0  0  0  0  0  0
   16.2189   -3.2143    0.0000 C   0  0  0  0  0  0  0  0  0  0  0  0
   15.8883   -4.6774    0.0000 O   0  0  0  0  0  0  0  0  0  0  0  0
   15.3962   -1.9600    0.0000 N   0  0  0  0  0  0  0  0  0  0  0  0
   13.8986   -2.0454    0.0000 C   0  0  0  0  0  0  0  0  0  0  0  0
   14.2428   -3.5054    0.0000 C   0  0  0  0  0  0  0  0  0  0  0  0
   15.6792   -3.9374    0.0000 C   0  0  0  0  0  0  0  0  0  0  0  0
   16.0234   -5.3974    0.0000 C   0  0  0  0  0  0  0  0  0  0  0  0
   17.4599   -5.8293    0.0000 N   0  0  0  0  0  0  0  0  0  0  0  0
   17.8040   -7.2893    0.0000 C   0  0  0  0  0  0  0  0  0  0  0  0
   19.2405   -7.7212    0.0000 N   0  0  0  0  0  0  0  0  0  0  0  0
   16.7117   -8.3173    0.0000 N   0  0  0  0  0  0  0  0  0  0  0  0
   12.4621   -1.6135    0.0000 C   0  0  0  0  0  0  0  0  0  0  0  0
   11.6511   -2.8753    0.0000 O   0  0  0  0  0  0  0  0  0  0  0  0
   12.1180   -0.1535    0.0000 N   0  0  0  0  0  0  0  0  0  0  0  0
   10.6815    0.2784    0.0000 C   0  0  0  0  0  0  0  0  0  0  0  0
   10.5056   -1.2112    0.0000 C   0  0  0  0  0  0  0  0  0  0  0  0
   11.7077   -2.1084    0.0000 C   0  0  0  0  0  0  0  0  0  0  0  0
   11.5317   -3.5981    0.0000 C   0  0  0  0  0  0  0  0  0  0  0  0
   12.6155   -4.6351    0.0000 N   0  0  0  0  0  0  0  0  0  0  0  0
   10.1537   -4.1905    0.0000 O   0  0  0  0  0  0  0  0  0  0  0  0
    9.4794    1.1756    0.0000 C   0  0  0  0  0  0  0  0  0  0  0  0
    8.4053    0.1286    0.0000 O   0  0  0  0  0  0  0  0  0  0  0  0
    9.6553    2.6652    0.0000 N   0  0  0  0  0  0  0  0  0  0  0  0
    8.4532    3.5624    0.0000 C   0  0  0  0  0  0  0  0  0  0  0  0
    8.1299    2.0977    0.0000 C   0  0  0  0  0  0  0  0  0  0  0  0
    7.3891    0.7934    0.0000 C   0  0  0  0  0  0  0  0  0  0  0  0
    6.2968   -0.2347    0.0000 C   0  0  0  0  0  0  0  0  0  0  0  0
    4.9500   -0.8951    0.0000 C   0  0  0  0  0  0  0  0  0  0  0  0
    9.7654    4.2892    0.0000 C   0  0  0  0  0  0  0  0  0  0  0  0
    8.3305    5.0574    0.0000 C   0  0  0  0  0  0  0  0  0  0  0  0
    9.7905    5.4016    0.0000 O   0  0  0  0  0  0  0  0  0  0  0  0
    7.7726    6.4498    0.0000 N   0  0  0  0  0  0  0  0  0  0  0  0
    6.8291    7.6159    0.0000 C   0  0  0  0  0  0  0  0  0  0  0  0
    7.0790    9.0949    0.0000 C   0  0  0  0  0  0  0  0  0  0  0  0
    8.4849    9.6179    0.0000 C   0  0  0  0  0  0  0  0  0  0  0  0
    8.7349   11.0969    0.0000 C   0  0  0  0  0  0  0  0  0  0  0  0
   10.1407   11.6200    0.0000 N   0  0  0  0  0  0  0  0  0  0  0  0
   10.3907   13.0990    0.0000 C   0  0  0  0  0  0  0  0  0  0  0  0
   11.7965   13.6220    0.0000 N   0  0  0  0  0  0  0  0  0  0  0  0
    9.2348   14.0550    0.0000 N   0  0  0  0  0  0  0  0  0  0  0  0
    5.5837    8.4520    0.0000 C   0  0  0  0  0  0  0  0  0  0  0  0
    6.2249    9.8081    0.0000 O   0  0  0  0  0  0  0  0  0  0  0  0
    4.1473    8.8840    0.0000 N   0  0  0  0  0  0  0  0  0  0  0  0
    2.6473    8.8733    0.0000 C   0  0  0  0  0  0  0  0  0  0  0  0
    1.6468    9.9909    0.0000 C   0  0  0  0  0  0  0  0  0  0  0  0
    2.1144   11.4161    0.0000 C   0  0  0  0  0  0  0  0  0  0  0  0
    1.1139   12.5337    0.0000 C   0  0  0  0  0  0  0  0  0  0  0  0
    1.5815   13.9590    0.0000 N   0  0  0  0  0  0  0  0  0  0  0  0
    0.5811   15.0766    0.0000 C   0  0  0  0  0  0  0  0  0  0  0  0
    1.0487   16.5018    0.0000 N   0  0  0  0  0  0  0  0  0  0  0  0
   -0.8871   14.7689    0.0000 N   0  0  0  0  0  0  0  0  0  0  0  0
    1.2171    8.4210    0.0000 C   0  0  0  0  0  0  0  0  0  0  0  0
    0.5567    9.7678    0.0000 O   0  0  0  0  0  0  0  0  0  0  0  0
   -0.0162    7.5672    0.0000 N   0  0  0  0  0  0  0  0  0  0  0  0
   -0.9431    6.3879    0.0000 C   0  0  0  0  0  0  0  0  0  0  0  0
   -2.4406    6.3025    0.0000 C   0  0  0  0  0  0  0  0  0  0  0  0
   -3.2634    7.5567    0.0000 C   0  0  0  0  0  0  0  0  0  0  0  0
   -4.6921    8.0137    0.0000 N   0  0  0  0  0  0  0  0  0  0  0  0
   -2.4303    8.8041    0.0000 O   0  0  0  0  0  0  0  0  0  0  0  0
   -1.4812    4.9877    0.0000 C   0  0  0  0  0  0  0  0  0  0  0  0
   -2.7326    5.8146    0.0000 O   0  0  0  0  0  0  0  0  0  0  0  0
   -1.5826    3.4911    0.0000 N   0  0  0  0  0  0  0  0  0  0  0  0
   -1.2385    2.0311    0.0000 C   0  0  0  0  0  0  0  0  0  0  0  0
   -0.4793    0.7375    0.0000 C   0  0  0  0  0  0  0  0  0  0  0  0
    0.6275   -0.2749    0.0000 C   0  0  0  0  0  0  0  0  0  0  0  0
    1.9836   -0.9162    0.0000 C   0  0  0  0  0  0  0  0  0  0  0  0
    3.4684   -1.1292    0.0000 C   0  0  0  0  0  0  0  0  0  0  0  0
   -0.8154    0.5920    0.0000 C   0  0  0  0  0  0  0  0  0  0  0  0
   -0.6724   -0.9011    0.0000 C   0  0  0  0  0  0  0  0  0  0  0  0
   -0.8145   -2.3944    0.0000 C   0  0  0  0  0  0  0  0  0  0  0  0
   -1.2367   -3.8337    0.0000 C   0  0  0  0  0  0  0  0  0  0  0  0
   -1.9262    3.3642    0.0000 C   0  0  0  0  0  0  0  0  0  0  0  0
   -0.6646    4.1755    0.0000 O   0  0  0  0  0  0  0  0  0  0  0  0
   -2.8538    4.5430    0.0000 N   0  0  0  0  0  0  0  0  0  0  0  0
   -3.9877    5.5249    0.0000 C   0  0  0  0  0  0  0  0  0  0  0  0
   -3.8930    7.0219    0.0000 C   0  0  0  0  0  0  0  0  0  0  0  0
   -5.1422    7.8524    0.0000 C   0  0  0  0  0  0  0  0  0  0  0  0
   -5.0475    9.3495    0.0000 C   0  0  0  0  0  0  0  0  0  0  0  0
   -6.2966   10.1800    0.0000 N   0  0  0  0  0  0  0  0  0  0  0  0
   -6.2019   11.6770    0.0000 C   0  0  0  0  0  0  0  0  0  0  0  0
   -7.2129   12.7850    0.0000 N   0  0  0  0  0  0  0  0  0  0  0  0
   -4.8581   12.3435    0.0000 N   0  0  0  0  0  0  0  0  0  0  0  0
   -5.2870    6.2745    0.0000 C   0  0  0  0  0  0  0  0  0  0  0  0
   -5.1948    7.7717    0.0000 O   0  0  0  0  0  0  0  0  0  0  0  0
   -6.7046    6.7647    0.0000 N   0  0  0  0  0  0  0  0  0  0  0  0
   -8.1894    6.9777    0.0000 C   0  0  0  0  0  0  0  0  0  0  0  0
   -8.9191    8.2883    0.0000 C   0  0  0  0  0  0  0  0  0  0  0  0
   -8.1490    9.5755    0.0000 C   0  0  0  0  0  0  0  0  0  0  0  0
   -8.8787   10.8860    0.0000 C   0  0  0  0  0  0  0  0  0  0  0  0
   -8.1086   12.1733    0.0000 N   0  0  0  0  0  0  0  0  0  0  0  0
   -8.8383   13.4838    0.0000 C   0  0  0  0  0  0  0  0  0  0  0  0
   -8.0682   14.7710    0.0000 N   0  0  0  0  0  0  0  0  0  0  0  0
  -10.3381   13.5071    0.0000 N   0  0  0  0  0  0  0  0  0  0  0  0
   -9.6877    6.9059    0.0000 C   0  0  0  0  0  0  0  0  0  0  0  0
  -10.0810    8.3534    0.0000 O   0  0  0  0  0  0  0  0  0  0  0  0
  -11.1453    6.5518    0.0000 N   0  0  0  0  0  0  0  0  0  0  0  0
  -12.5096    5.9283    0.0000 C   0  0  0  0  0  0  0  0  0  0  0  0
  -13.8320    6.6363    0.0000 C   0  0  0  0  0  0  0  0  0  0  0  0
  -13.8800    8.1355    0.0000 C   0  0  0  0  0  0  0  0  0  0  0  0
  -15.2024    8.8435    0.0000 C   0  0  0  0  0  0  0  0  0  0  0  0
  -15.2505   10.3427    0.0000 N   0  0  0  0  0  0  0  0  0  0  0  0
  -16.5729   11.0508    0.0000 C   0  0  0  0  0  0  0  0  0  0  0  0
  -16.6209   12.5500    0.0000 N   0  0  0  0  0  0  0  0  0  0  0  0
  -17.8472   10.2595    0.0000 N   0  0  0  0  0  0  0  0  0  0  0  0
  -13.7312    5.0578    0.0000 C   0  0  0  0  0  0  0  0  0  0  0  0
  -14.8446    6.0629    0.0000 O   0  0  0  0  0  0  0  0  0  0  0  0
  -14.7660    3.9719    0.0000 N   0  0  0  0  0  0  0  0  0  0  0  0
  -15.5766    2.7098    0.0000 C   0  0  0  0  0  0  0  0  0  0  0  0
  -17.0718    2.5904    0.0000 C   0  0  0  0  0  0  0  0  0  0  0  0
  -17.9228    3.8257    0.0000 C   0  0  0  0  0  0  0  0  0  0  0  0
  -17.4236    5.2402    0.0000 C   0  0  0  0  0  0  0  0  0  0  0  0
  -18.6146    6.1520    0.0000 N   0  0  0  0  0  0  0  0  0  0  0  0
  -19.8499    5.3011    0.0000 C   0  0  0  0  0  0  0  0  0  0  0  0
  -21.3088    5.6497    0.0000 C   0  0  0  0  0  0  0  0  0  0  0  0
  -22.3402    4.5605    0.0000 C   0  0  0  0  0  0  0  0  0  0  0  0
  -21.9126    3.1227    0.0000 C   0  0  0  0  0  0  0  0  0  0  0  0
  -20.4536    2.7741    0.0000 C   0  0  0  0  0  0  0  0  0  0  0  0
  -19.4223    3.8633    0.0000 C   0  0  0  0  0  0  0  0  0  0  0  0
  -16.1336    1.3171    0.0000 C   0  0  0  0  0  0  0  0  0  0  0  0
  -17.6137    1.5606    0.0000 O   0  0  0  0  0  0  0  0  0  0  0  0
  -16.4170   -0.1559    0.0000 N   0  0  0  0  0  0  0  0  0  0  0  0
  -16.4166   -1.6559    0.0000 C   0  0  0  0  0  0  0  0  0  0  0  0
  -17.6100   -2.5647    0.0000 C   0  0  0  0  0  0  0  0  0  0  0  0
  -18.9937   -1.9856    0.0000 C   0  0  0  0  0  0  0  0  0  0  0  0
  -20.1870   -2.8944    0.0000 C   0  0  0  0  0  0  0  0  0  0  0  0
  -21.5707   -2.3153    0.0000 N   0  0  0  0  0  0  0  0  0  0  0  0
  -22.7641   -3.2241    0.0000 C   0  0  0  0  0  0  0  0  0  0  0  0
  -24.1478   -2.6450    0.0000 N   0  0  0  0  0  0  0  0  0  0  0  0
  -22.5738   -4.7119    0.0000 N   0  0  0  0  0  0  0  0  0  0  0  0
  -16.1323   -3.1287    0.0000 C   0  0  0  0  0  0  0  0  0  0  0  0
  -17.5091   -3.7240    0.0000 O   0  0  0  0  0  0  0  0  0  0  0  0
  -15.5743   -4.5211    0.0000 N   0  0  0  0  0  0  0  0  0  0  0  0
  -14.7630   -5.7827    0.0000 C   0  0  0  0  0  0  0  0  0  0  0  0
  -15.2756   -7.1924    0.0000 C   0  0  0  0  0  0  0  0  0  0  0  0
  -16.7527   -7.4534    0.0000 C   0  0  0  0  0  0  0  0  0  0  0  0
  -17.2653   -8.8631    0.0000 C   0  0  0  0  0  0  0  0  0  0  0  0
  -18.7425   -9.1240    0.0000 O   0  0  0  0  0  0  0  0  0  0  0  0
  -16.3008  -10.0118    0.0000 O   0  0  0  0  0  0  0  0  0  0  0  0
  -13.7276   -6.8680    0.0000 C   0  0  0  0  0  0  0  0  0  0  0  0
  -14.5640   -8.1132    0.0000 O   0  0  0  0  0  0  0  0  0  0  0  0
  -12.5054   -7.7377    0.0000 N   0  0  0  0  0  0  0  0  0  0  0  0
  -11.1408   -8.3604    0.0000 C   0  0  0  0  0  0  0  0  0  0  0  0
   -9.6830   -8.7136    0.0000 C   0  0  0  0  0  0  0  0  0  0  0  0
   -8.1846   -8.7846    0.0000 C   0  0  0  0  0  0  0  0  0  0  0  0
   -6.7000   -8.5706    0.0000 C   0  0  0  0  0  0  0  0  0  0  0  0
   -5.2826   -8.0796    0.0000 C   0  0  0  0  0  0  0  0  0  0  0  0
   -3.9838   -7.3292    0.0000 C   0  0  0  0  0  0  0  0  0  0  0  0
   -2.8505   -6.3466    0.0000 C   0  0  0  0  0  0  0  0  0  0  0  0
   -1.9236   -5.1672    0.0000 C   0  0  0  0  0  0  0  0  0  0  0  0
  -12.3047   -9.3066    0.0000 C   0  0  0  0  0  0  0  0  0  0  0  0
  -10.8099   -9.8235    0.0000 C   0  0  0  0  0  0  0  0  0  0  0  0
   -9.5276  -10.6018    0.0000 O   0  0  0  0  0  0  0  0  0  0  0  0
  -11.9115  -10.8416    0.0000 N   0  0  0  0  0  0  0  0  0  0  0  0
  -11.5805  -12.3046    0.0000 C   0  0  0  0  0  0  0  0  0  0  0  0
  -10.7692  -13.5663    0.0000 C   0  0  0  0  0  0  0  0  0  0  0  0
  -11.4561  -14.8997    0.0000 C   0  0  0  0  0  0  0  0  0  0  0  0
  -10.6448  -16.1614    0.0000 C   0  0  0  0  0  0  0  0  0  0  0  0
  -11.1641  -17.5686    0.0000 N   0  0  0  0  0  0  0  0  0  0  0  0
   -9.1465  -16.0895    0.0000 O   0  0  0  0  0  0  0  0  0  0  0  0
  -12.6821  -13.3227    0.0000 C   0  0  0  0  0  0  0  0  0  0  0  0
  -14.1146  -12.8778    0.0000 O   0  0  0  0  0  0  0  0  0  0  0  0
  -12.3512  -14.7858    0.0000 N   0  0  0  0  0  0  0  0  0  0  0  0
  -13.4528  -15.8039    0.0000 C   0  0  0  0  0  0  0  0  0  0  0  0
  -14.8361  -16.3838    0.0000 C   0  0  0  0  0  0  0  0  0  0  0  0
  -16.0301  -15.4758    0.0000 C   0  0  0  0  0  0  0  0  0  0  0  0
  -17.4134  -16.0557    0.0000 C   0  0  0  0  0  0  0  0  0  0  0  0
  -18.6073  -15.1477    0.0000 N   0  0  0  0  0  0  0  0  0  0  0  0
  -19.9907  -15.7276    0.0000 C   0  0  0  0  0  0  0  0  0  0  0  0
  -21.1846  -14.8195    0.0000 N   0  0  0  0  0  0  0  0  0  0  0  0
  -20.1801  -17.2156    0.0000 N   0  0  0  0  0  0  0  0  0  0  0  0
  -13.1219  -17.2669    0.0000 C   0  0  0  0  0  0  0  0  0  0  0  0
  -14.0911  -18.4117    0.0000 O   0  0  0  0  0  0  0  0  0  0  0  0
  -11.7543  -17.8832    0.0000 O   0  0  0  0  0  0  0  0  0  0  0  0
   26.8280   -1.9506    0.0000 H   0  0  0  0  0  0  0  0  0  0  0  0
   26.4831   -6.4299    0.0000 H   0  0  0  0  0  0  0  0  0  0  0  0
   28.8873   -8.2243    0.0000 H   0  0  0  0  0  0  0  0  0  0  0  0
   29.2254   -2.2674    0.0000 H   0  0  0  0  0  0  0  0  0  0  0  0
   36.3310   -1.3595    0.0000 H   0  0  0  0  0  0  0  0  0  0  0  0
   36.8077   -6.5338    0.0000 H   0  0  0  0  0  0  0  0  0  0  0  0
   33.8203   -6.8090    0.0000 H   0  0  0  0  0  0  0  0  0  0  0  0
   38.9290   -5.0338    0.0000 H   0  0  0  0  0  0  0  0  0  0  0  0
   29.1010   -4.6348    0.0000 H   0  0  0  0  0  0  0  0  0  0  0  0
   27.3633   -2.0022    0.0000 H   0  0  0  0  0  0  0  0  0  0  0  0
   31.6116    0.8147    0.0000 H   0  0  0  0  0  0  0  0  0  0  0  0
   29.2519    1.9019    0.0000 H   0  0  0  0  0  0  0  0  0  0  0  0
   24.4307   -1.6562    0.0000 H   0  0  0  0  0  0  0  0  0  0  0  0
   23.6995   -4.9925    0.0000 H   0  0  0  0  0  0  0  0  0  0  0  0
   21.7845   -4.7664    0.0000 H   0  0  0  0  0  0  0  0  0  0  0  0
   22.7670   -1.8131    0.0000 H   0  0  0  0  0  0  0  0  0  0  0  0
   20.8519   -1.5869    0.0000 H   0  0  0  0  0  0  0  0  0  0  0  0
   19.2705   -1.0467    0.0000 H   0  0  0  0  0  0  0  0  0  0  0  0
   17.3723   -1.6689    0.0000 H   0  0  0  0  0  0  0  0  0  0  0  0
   17.3455   -5.2914    0.0000 H   0  0  0  0  0  0  0  0  0  0  0  0
   20.3199   -6.2750    0.0000 H   0  0  0  0  0  0  0  0  0  0  0  0
   20.9840   -5.4435    0.0000 H   0  0  0  0  0  0  0  0  0  0  0  0
   21.4148   -3.7052    0.0000 H   0  0  0  0  0  0  0  0  0  0  0  0
   20.1004   -2.8034    0.0000 H   0  0  0  0  0  0  0  0  0  0  0  0
   16.0710   -0.6204    0.0000 H   0  0  0  0  0  0  0  0  0  0  0  0
   14.0745   -0.5558    0.0000 H   0  0  0  0  0  0  0  0  0  0  0  0
   13.8866   -4.9625    0.0000 H   0  0  0  0  0  0  0  0  0  0  0  0
   12.7668   -3.7728    0.0000 H   0  0  0  0  0  0  0  0  0  0  0  0
   17.1768   -3.8520    0.0000 H   0  0  0  0  0  0  0  0  0  0  0  0
   16.2104   -2.5346    0.0000 H   0  0  0  0  0  0  0  0  0  0  0  0
   15.8475   -6.8870    0.0000 H   0  0  0  0  0  0  0  0  0  0  0  0
   14.5474   -5.6647    0.0000 H   0  0  0  0  0  0  0  0  0  0  0  0
   18.7685   -5.0961    0.0000 H   0  0  0  0  0  0  0  0  0  0  0  0
   19.5846   -9.1812    0.0000 H   0  0  0  0  0  0  0  0  0  0  0  0
   20.4500   -6.8340    0.0000 H   0  0  0  0  0  0  0  0  0  0  0  0
   17.0559   -9.7773    0.0000 H   0  0  0  0  0  0  0  0  0  0  0  0
   15.2753   -7.8854    0.0000 H   0  0  0  0  0  0  0  0  0  0  0  0
   13.2103    0.8745    0.0000 H   0  0  0  0  0  0  0  0  0  0  0  0
   11.3563    1.6180    0.0000 H   0  0  0  0  0  0  0  0  0  0  0  0
    9.8308   -2.5509    0.0000 H   0  0  0  0  0  0  0  0  0  0  0  0
    9.0691   -0.7793    0.0000 H   0  0  0  0  0  0  0  0  0  0  0  0
   13.1441   -2.5404    0.0000 H   0  0  0  0  0  0  0  0  0  0  0  0
   12.6866   -0.9719    0.0000 H   0  0  0  0  0  0  0  0  0  0  0  0
   12.5579   -5.9849    0.0000 H   0  0  0  0  0  0  0  0  0  0  0  0
   14.2446   -4.2866    0.0000 H   0  0  0  0  0  0  0  0  0  0  0  0
   11.0953    3.0853    0.0000 H   0  0  0  0  0  0  0  0  0  0  0  0
    9.6288    2.0410    0.0000 H   0  0  0  0  0  0  0  0  0  0  0  0
    8.8598    0.7873    0.0000 H   0  0  0  0  0  0  0  0  0  0  0  0
    8.6426   -0.0305    0.0000 H   0  0  0  0  0  0  0  0  0  0  0  0
    8.0462   -0.5550    0.0000 H   0  0  0  0  0  0  0  0  0  0  0  0
    7.6030   -0.9722    0.0000 H   0  0  0  0  0  0  0  0  0  0  0  0
    6.3449   -1.7339    0.0000 H   0  0  0  0  0  0  0  0  0  0  0  0
    5.4023   -2.3253    0.0000 H   0  0  0  0  0  0  0  0  0  0  0  0
   11.1355    3.6786    0.0000 H   0  0  0  0  0  0  0  0  0  0  0  0
   10.7500    5.4209    0.0000 H   0  0  0  0  0  0  0  0  0  0  0  0
    9.1321    5.6489    0.0000 H   0  0  0  0  0  0  0  0  0  0  0  0
    9.0663    7.2090    0.0000 H   0  0  0  0  0  0  0  0  0  0  0  0
    8.3156    7.8166    0.0000 H   0  0  0  0  0  0  0  0  0  0  0  0
    6.6303   10.5262    0.0000 H   0  0  0  0  0  0  0  0  0  0  0  0
    5.6211    9.4475    0.0000 H   0  0  0  0  0  0  0  0  0  0  0  0
    9.9849    9.6286    0.0000 H   0  0  0  0  0  0  0  0  0  0  0  0
    8.9337    8.1866    0.0000 H   0  0  0  0  0  0  0  0  0  0  0  0
    8.4639   12.5723    0.0000 H   0  0  0  0  0  0  0  0  0  0  0  0
    7.2448   11.2692    0.0000 H   0  0  0  0  0  0  0  0  0  0  0  0
   11.2966   10.6640    0.0000 H   0  0  0  0  0  0  0  0  0  0  0  0
   12.0465   15.1011    0.0000 H   0  0  0  0  0  0  0  0  0  0  0  0
   12.9524   12.6660    0.0000 H   0  0  0  0  0  0  0  0  0  0  0  0
    9.4848   15.5340    0.0000 H   0  0  0  0  0  0  0  0  0  0  0  0
    7.8289   13.5320    0.0000 H   0  0  0  0  0  0  0  0  0  0  0  0
    4.3603   10.3688    0.0000 H   0  0  0  0  0  0  0  0  0  0  0  0
    3.4172   10.1607    0.0000 H   0  0  0  0  0  0  0  0  0  0  0  0
    0.2480   10.5324    0.0000 H   0  0  0  0  0  0  0  0  0  0  0  0
    0.4621    9.0709    0.0000 H   0  0  0  0  0  0  0  0  0  0  0  0
    3.0413   12.5955    0.0000 H   0  0  0  0  0  0  0  0  0  0  0  0
    3.5133   10.8746    0.0000 H   0  0  0  0  0  0  0  0  0  0  0  0
   -0.2085   13.2417    0.0000 H   0  0  0  0  0  0  0  0  0  0  0  0
    0.0502   11.4761    0.0000 H   0  0  0  0  0  0  0  0  0  0  0  0
    3.0497   14.2666    0.0000 H   0  0  0  0  0  0  0  0  0  0  0  0
    0.0482   17.6194    0.0000 H   0  0  0  0  0  0  0  0  0  0  0  0
    2.5168   16.8095    0.0000 H   0  0  0  0  0  0  0  0  0  0  0  0
   -1.8876   15.8865    0.0000 H   0  0  0  0  0  0  0  0  0  0  0  0
   -1.3547   13.3437    0.0000 H   0  0  0  0  0  0  0  0  0  0  0  0
   -1.0442    8.6595    0.0000 H   0  0  0  0  0  0  0  0  0  0  0  0
   -1.6369    7.7178    0.0000 H   0  0  0  0  0  0  0  0  0  0  0  0
   -3.9211    6.0611    0.0000 H   0  0  0  0  0  0  0  0  0  0  0  0
   -2.6427    4.8161    0.0000 H   0  0  0  0  0  0  0  0  0  0  0  0
   -5.5837    8.7255    0.0000 H   0  0  0  0  0  0  0  0  0  0  0  0
   -5.6597    6.2363    0.0000 H   0  0  0  0  0  0  0  0  0  0  0  0
   -3.0776    3.3684    0.0000 H   0  0  0  0  0  0  0  0  0  0  0  0
   -0.7696   -0.7341    0.0000 H   0  0  0  0  0  0  0  0  0  0  0  0
   -1.9707    0.5775    0.0000 H   0  0  0  0  0  0  0  0  0  0  0  0
    0.7838   -1.7668    0.0000 H   0  0  0  0  0  0  0  0  0  0  0  0
   -0.4466   -1.3220    0.0000 H   0  0  0  0  0  0  0  0  0  0  0  0
    2.4001   -2.3572    0.0000 H   0  0  0  0  0  0  0  0  0  0  0  0
    1.2658   -2.2333    0.0000 H   0  0  0  0  0  0  0  0  0  0  0  0
    3.4790   -2.6291    0.0000 H   0  0  0  0  0  0  0  0  0  0  0  0
    0.2862    1.6101    0.0000 H   0  0  0  0  0  0  0  0  0  0  0  0
    0.5103   -0.1097    0.0000 H   0  0  0  0  0  0  0  0  0  0  0  0
    0.8009   -0.6193    0.0000 H   0  0  0  0  0  0  0  0  0  0  0  0
    0.4966   -1.8411    0.0000 H   0  0  0  0  0  0  0  0  0  0  0  0
    0.6855   -2.3964    0.0000 H   0  0  0  0  0  0  0  0  0  0  0  0
    0.2877   -3.4118    0.0000 H   0  0  0  0  0  0  0  0  0  0  0  0
    0.1560   -4.3908    0.0000 H   0  0  0  0  0  0  0  0  0  0  0  0
   -1.9028    5.7030    0.0000 H   0  0  0  0  0  0  0  0  0  0  0  0
   -2.7858    6.4224    0.0000 H   0  0  0  0  0  0  0  0  0  0  0  0
   -3.2921    8.3963    0.0000 H   0  0  0  0  0  0  0  0  0  0  0  0
   -2.4891    6.4937    0.0000 H   0  0  0  0  0  0  0  0  0  0  0  0
   -6.5461    8.3807    0.0000 H   0  0  0  0  0  0  0  0  0  0  0  0
   -6.1958    6.7848    0.0000 H   0  0  0  0  0  0  0  0  0  0  0  0
   -4.4465   10.7238    0.0000 H   0  0  0  0  0  0  0  0  0  0  0  0
   -3.5575    9.1766    0.0000 H   0  0  0  0  0  0  0  0  0  0  0  0
   -7.7617    9.8584    0.0000 H   0  0  0  0  0  0  0  0  0  0  0  0
   -7.3563   14.0045    0.0000 H   0  0  0  0  0  0  0  0  0  0  0  0
   -8.9762   12.2518    0.0000 H   0  0  0  0  0  0  0  0  0  0  0  0
   -4.7634   13.8405    0.0000 H   0  0  0  0  0  0  0  0  0  0  0  0
   -3.6090   11.5130    0.0000 H   0  0  0  0  0  0  0  0  0  0  0  0
   -6.3515    8.2225    0.0000 H   0  0  0  0  0  0  0  0  0  0  0  0
   -7.3392    8.2135    0.0000 H   0  0  0  0  0  0  0  0  0  0  0  0
  -10.0531    9.2702    0.0000 H   0  0  0  0  0  0  0  0  0  0  0  0
  -10.2774    7.6519    0.0000 H   0  0  0  0  0  0  0  0  0  0  0  0
   -7.2486   10.7752    0.0000 H   0  0  0  0  0  0  0  0  0  0  0  0
   -6.9038    8.7391    0.0000 H   0  0  0  0  0  0  0  0  0  0  0  0
  -10.0126   11.8680    0.0000 H   0  0  0  0  0  0  0  0  0  0  0  0
  -10.1493   10.0888    0.0000 H   0  0  0  0  0  0  0  0  0  0  0  0
   -6.6477   12.5135    0.0000 H   0  0  0  0  0  0  0  0  0  0  0  0
   -8.7978   16.0816    0.0000 H   0  0  0  0  0  0  0  0  0  0  0  0
   -6.5683   14.7477    0.0000 H   0  0  0  0  0  0  0  0  0  0  0  0
  -11.0678   14.8177    0.0000 H   0  0  0  0  0  0  0  0  0  0  0  0
  -11.1082   12.2199    0.0000 H   0  0  0  0  0  0  0  0  0  0  0  0
  -11.4599    8.0185    0.0000 H   0  0  0  0  0  0  0  0  0  0  0  0
  -12.2801    7.4106    0.0000 H   0  0  0  0  0  0  0  0  0  0  0  0
  -15.3168    6.8493    0.0000 H   0  0  0  0  0  0  0  0  0  0  0  0
  -14.6306    5.3665    0.0000 H   0  0  0  0  0  0  0  0  0  0  0  0
  -13.4124    9.5608    0.0000 H   0  0  0  0  0  0  0  0  0  0  0  0
  -12.3878    8.2881    0.0000 H   0  0  0  0  0  0  0  0  0  0  0  0
  -16.6872    9.0565    0.0000 H   0  0  0  0  0  0  0  0  0  0  0  0
  -15.8403    7.4859    0.0000 H   0  0  0  0  0  0  0  0  0  0  0  0
  -13.9761   11.1340    0.0000 H   0  0  0  0  0  0  0  0  0  0  0  0
  -17.9433   13.2580    0.0000 H   0  0  0  0  0  0  0  0  0  0  0  0
  -15.3466   13.3412    0.0000 H   0  0  0  0  0  0  0  0  0  0  0  0
  -19.1696   10.9675    0.0000 H   0  0  0  0  0  0  0  0  0  0  0  0
  -17.7992    8.7603    0.0000 H   0  0  0  0  0  0  0  0  0  0  0  0
  -15.8236    5.0356    0.0000 H   0  0  0  0  0  0  0  0  0  0  0  0
  -16.3475    3.9965    0.0000 H   0  0  0  0  0  0  0  0  0  0  0  0
  -18.5019    2.1379    0.0000 H   0  0  0  0  0  0  0  0  0  0  0  0
  -17.0571    1.0905    0.0000 H   0  0  0  0  0  0  0  0  0  0  0  0
  -16.0487    5.8399    0.0000 H   0  0  0  0  0  0  0  0  0  0  0  0
  -18.5770    7.6516    0.0000 H   0  0  0  0  0  0  0  0  0  0  0  0
  -21.7364    7.0874    0.0000 H   0  0  0  0  0  0  0  0  0  0  0  0
  -23.7991    4.9090    0.0000 H   0  0  0  0  0  0  0  0  0  0  0  0
  -22.9439    2.0335    0.0000 H   0  0  0  0  0  0  0  0  0  0  0  0
  -20.0260    1.3364    0.0000 H   0  0  0  0  0  0  0  0  0  0  0  0
  -17.8818    0.1672    0.0000 H   0  0  0  0  0  0  0  0  0  0  0  0
  -17.6696   -0.8313    0.0000 H   0  0  0  0  0  0  0  0  0  0  0  0
  -18.4205   -3.8268    0.0000 H   0  0  0  0  0  0  0  0  0  0  0  0
  -16.7867   -3.8186    0.0000 H   0  0  0  0  0  0  0  0  0  0  0  0
  -20.0959   -0.9682    0.0000 H   0  0  0  0  0  0  0  0  0  0  0  0
  -18.5126   -0.5648    0.0000 H   0  0  0  0  0  0  0  0  0  0  0  0
  -20.9976   -4.1565    0.0000 H   0  0  0  0  0  0  0  0  0  0  0  0
  -19.2171   -4.0386    0.0000 H   0  0  0  0  0  0  0  0  0  0  0  0
  -21.7611   -0.8274    0.0000 H   0  0  0  0  0  0  0  0  0  0  0  0
  -25.3412   -3.5537    0.0000 H   0  0  0  0  0  0  0  0  0  0  0  0
  -24.3382   -1.1571    0.0000 H   0  0  0  0  0  0  0  0  0  0  0  0
  -23.7671   -5.6207    0.0000 H   0  0  0  0  0  0  0  0  0  0  0  0
  -21.1901   -5.2910    0.0000 H   0  0  0  0  0  0  0  0  0  0  0  0
  -16.9813   -5.0412    0.0000 H   0  0  0  0  0  0  0  0  0  0  0  0
  -16.2629   -5.7665    0.0000 H   0  0  0  0  0  0  0  0  0  0  0  0
  -15.4580   -8.6813    0.0000 H   0  0  0  0  0  0  0  0  0  0  0  0
  -13.9051   -7.8022    0.0000 H   0  0  0  0  0  0  0  0  0  0  0  0
  -18.2300   -7.1933    0.0000 H   0  0  0  0  0  0  0  0  0  0  0  0
  -17.1161   -5.9980    0.0000 H   0  0  0  0  0  0  0  0  0  0  0  0
  -13.4078   -8.9359    0.0000 H   0  0  0  0  0  0  0  0  0  0  0  0
   -9.0811  -10.0876    0.0000 H   0  0  0  0  0  0  0  0  0  0  0  0
  -10.3400  -10.0621    0.0000 H   0  0  0  0  0  0  0  0  0  0  0  0
   -7.4906  -10.1143    0.0000 H   0  0  0  0  0  0  0  0  0  0  0  0
   -8.5746  -10.2330    0.0000 H   0  0  0  0  0  0  0  0  0  0  0  0
   -5.7668   -9.7450    0.0000 H   0  0  0  0  0  0  0  0  0  0  0  0
   -6.9904  -10.0423    0.0000 H   0  0  0  0  0  0  0  0  0  0  0  0
   -4.1441   -9.0562    0.0000 H   0  0  0  0  0  0  0  0  0  0  0  0
   -5.2893   -9.5796    0.0000 H   0  0  0  0  0  0  0  0  0  0  0  0
   -2.6810   -8.0727    0.0000 H   0  0  0  0  0  0  0  0  0  0  0  0
   -3.7065   -8.8033    0.0000 H   0  0  0  0  0  0  0  0  0  0  0  0
   -1.3822   -6.6533    0.0000 H   0  0  0  0  0  0  0  0  0  0  0  0
   -2.2992   -7.7416    0.0000 H   0  0  0  0  0  0  0  0  0  0  0  0
   -0.6615   -5.9778    0.0000 H   0  0  0  0  0  0  0  0  0  0  0  0
  -12.4327  -10.8012    0.0000 H   0  0  0  0  0  0  0  0  0  0  0  0
  -13.7221   -9.7977    0.0000 H   0  0  0  0  0  0  0  0  0  0  0  0
  -13.3298   -8.2116    0.0000 H   0  0  0  0  0  0  0  0  0  0  0  0
  -13.3875  -10.5746    0.0000 H   0  0  0  0  0  0  0  0  0  0  0  0
  -10.1972  -11.7247    0.0000 H   0  0  0  0  0  0  0  0  0  0  0  0
   -9.5753  -14.4743    0.0000 H   0  0  0  0  0  0  0  0  0  0  0  0
   -9.6676  -12.5482    0.0000 H   0  0  0  0  0  0  0  0  0  0  0  0
  -12.5577  -15.9178    0.0000 H   0  0  0  0  0  0  0  0  0  0  0  0
  -12.9366  -14.6586    0.0000 H   0  0  0  0  0  0  0  0  0  0  0  0
  -10.5204  -18.7565    0.0000 H   0  0  0  0  0  0  0  0  0  0  0  0
  -12.7810  -17.9698    0.0000 H   0  0  0  0  0  0  0  0  0  0  0  0
  -11.0690  -15.5641    0.0000 H   0  0  0  0  0  0  0  0  0  0  0  0
  -14.1043  -14.4528    0.0000 H   0  0  0  0  0  0  0  0  0  0  0  0
  -15.8054  -17.5286    0.0000 H   0  0  0  0  0  0  0  0  0  0  0  0
  -14.1846  -17.7349    0.0000 H   0  0  0  0  0  0  0  0  0  0  0  0
  -16.8414  -14.2141    0.0000 H   0  0  0  0  0  0  0  0  0  0  0  0
  -15.0608  -14.3310    0.0000 H   0  0  0  0  0  0  0  0  0  0  0  0
  -18.5150  -17.0738    0.0000 H   0  0  0  0  0  0  0  0  0  0  0  0
  -16.7619  -17.4068    0.0000 H   0  0  0  0  0  0  0  0  0  0  0  0
  -18.4179  -13.6597    0.0000 H   0  0  0  0  0  0  0  0  0  0  0  0
  -22.5680  -15.3995    0.0000 H   0  0  0  0  0  0  0  0  0  0  0  0
  -20.9952  -13.3316    0.0000 H   0  0  0  0  0  0  0  0  0  0  0  0
  -21.5635  -17.7955    0.0000 H   0  0  0  0  0  0  0  0  0  0  0  0
  -18.9862  -18.1236    0.0000 H   0  0  0  0  0  0  0  0  0  0  0  0
  1  2  1  0
  2  3  1  0
  3  4  2  0
  4  5  1  0
  5  6  2  0
  6  7  1  0
  7  8  2  0
  7  9  1  0
  9 10  1  0
 10 11  1  0
 11 12  2  0
  9 13  1  0
 13 14  1  0
 14 15  2  0
 15 16  1  0
 16 17  2  0
 17 18  1  0
 16 19  1  0
 14 20  1  0
 20 21  1  0
 21 22  2  0
 22 23  1  0
 23 24  2  0
 24 25  1  0
 25 26  2  0
 25 27  1  0
  1 28  2  0
  1 29  1  0
 29 30  1  0
 30 31  1  0
 31 32  1  0
 32 33  2  0
 32 34  1  0
 34 35  1  0
 35 36  1  0
 36 37  1  0
 36 38  1  0
 35 39  1  0
 39 40  2  0
 39 41  1  0
 41 42  1  0
 42 43  1  0
 43 44  1  0
 44 45  1  0
 45 46  1  0
 46 47  1  0
 47 48  2  3
 47 49  1  0
 42 50  1  0
 50 51  2  0
 50 52  1  0
 52 53  1  0
 53 54  1  0
 54 55  1  0
 55 56  1  0
 56 57  1  0
 56 58  2  0
 53 59  1  0
 59 60  2  0
 59 61  1  0
 62 61  1  1
 62 63  1  0
 63 64  1  0
 64 65  1  0
 65 66  1  0
 62 67  1  0
 62 68  1  0
 68 69  2  0
 68 70  1  0
 70 71  1  0
 71 72  1  0
 72 73  1  0
 73 74  1  0
 74 75  1  0
 75 76  1  0
 76 77  2  3
 76 78  1  0
 71 79  1  0
 79 80  2  0
 79 81  1  0
 81 82  1  0
 82 83  1  0
 83 84  1  0
 84 85  1  0
 85 86  1  0
 86 87  1  0
 87 88  2  3
 87 89  1  0
 82 90  1  0
 90 91  2  0
 90 92  1  0
 92 93  1  0
 93 94  1  0
 94 95  1  0
 95 96  1  0
 95 97  2  0
 93 98  1  0
 98 99  2  0
 98100  1  0
100101  1  0
101102  1  0
102103  1  0
103104  1  0
104105  1  0
101106  1  0
106107  1  0
107108  1  0
108109  1  0
101110  1  0
110111  2  0
110112  1  0
112113  1  0
113114  1  0
114115  1  0
115116  1  0
116117  1  0
117118  1  0
118119  2  3
118120  1  0
113121  1  0
121122  2  0
121123  1  0
123124  1  0
124125  1  0
125126  1  0
126127  1  0
127128  1  0
128129  1  0
129130  2  3
129131  1  0
124132  1  0
132133  2  0
132134  1  0
134135  1  0
135136  1  0
136137  1  0
137138  1  0
138139  1  0
139140  1  0
140141  2  3
140142  1  0
135143  1  0
143144  2  0
143145  1  0
145146  1  0
146147  1  0
147148  1  0
148149  2  0
149150  1  0
150151  1  0
151152  2  0
152153  1  0
153154  2  0
154155  1  0
155156  2  0
146157  1  0
157158  2  0
157159  1  0
159160  1  0
160161  1  0
161162  1  0
162163  1  0
163164  1  0
164165  1  0
165166  2  3
165167  1  0
160168  1  0
168169  2  0
168170  1  0
170171  1  0
171172  1  0
172173  1  0
173174  1  0
174175  2  0
174176  1  0
171177  1  0
177178  2  0
177179  1  0
179180  1  0
180181  1  0
181182  1  0
182183  1  0
183184  1  0
184185  1  0
185186  1  0
186187  1  0
180188  1  0
180189  1  1
189190  2  0
189191  1  0
191192  1  0
192193  1  0
193194  1  0
194195  1  0
195196  1  0
195197  2  0
192198  1  0
198199  2  0
198200  1  0
200201  1  0
201202  1  0
202203  1  0
203204  1  0
204205  1  0
205206  1  0
206207  2  3
206208  1  0
201209  1  0
209210  2  0
209211  1  0
  8  3  1  0
156148  1  0
 11  6  1  0
156151  1  0
 18 13  2  0
 66105  2  0
 22  9  1  0
109187  2  0
 26 21  1  0
  2212  1  0
  4213  1  0
  5214  1  0
  8215  1  0
 15216  1  0
 17217  1  0
 18218  1  0
 19219  1  0
 23220  1  0
 24221  1  0
 26222  1  0
 27223  1  0
 29224  1  0
 30225  1  0
 30226  1  0
 31227  1  0
 31228  1  0
 34229  1  0
 35230  1  1
 36231  1  6
 37232  1  0
 38233  1  0
 38234  1  0
 38235  1  0
 41236  1  0
 42237  1  1
 43238  1  0
 43239  1  0
 44240  1  0
 44241  1  0
 45242  1  0
 45243  1  0
 46244  1  0
 48245  1  0
 48246  1  0
 49247  1  0
 49248  1  0
 52249  1  0
 53250  1  1
 54251  1  0
 54252  1  0
 55253  1  0
 55254  1  0
 57255  1  0
 57256  1  0
 61257  1  0
 63258  1  0
 63259  1  0
 64260  1  0
 64261  1  0
 65262  1  0
 65263  1  0
 66264  1  0
 67265  1  0
 67266  1  0
 67267  1  0
 70268  1  0
 71269  1  6
 72270  1  0
 72271  1  0
 73272  1  0
 73273  1  0
 74274  1  0
 74275  1  0
 75276  1  0
 77277  1  0
 77278  1  0
 78279  1  0
 78280  1  0
 81281  1  0
 82282  1  6
 83283  1  0
 83284  1  0
 84285  1  0
 84286  1  0
 85287  1  0
 85288  1  0
 86289  1  0
 88290  1  0
 88291  1  0
 89292  1  0
 89293  1  0
 92294  1  0
 93295  1  6
 94296  1  0
 94297  1  0
 96298  1  0
 96299  1  0
100300  1  0
102301  1  0
102302  1  0
103303  1  0
103304  1  0
104305  1  0
104306  1  0
105307  1  0
106308  1  0
106309  1  0
107310  1  0
107311  1  0
108312  1  0
108313  1  0
109314  1  0
112315  1  0
113316  1  6
114317  1  0
114318  1  0
115319  1  0
115320  1  0
116321  1  0
116322  1  0
117323  1  0
119324  1  0
119325  1  0
120326  1  0
120327  1  0
123328  1  0
124329  1  6
125330  1  0
125331  1  0
126332  1  0
126333  1  0
127334  1  0
127335  1  0
128336  1  0
130337  1  0
130338  1  0
131339  1  0
131340  1  0
134341  1  0
135342  1  6
136343  1  0
136344  1  0
137345  1  0
137346  1  0
138347  1  0
138348  1  0
139349  1  0
141350  1  0
141351  1  0
142352  1  0
142353  1  0
145354  1  0
146355  1  6
147356  1  0
147357  1  0
149358  1  0
150359  1  0
152360  1  0
153361  1  0
154362  1  0
155363  1  0
159364  1  0
160365  1  6
161366  1  0
161367  1  0
162368  1  0
162369  1  0
163370  1  0
163371  1  0
164372  1  0
166373  1  0
166374  1  0
167375  1  0
167376  1  0
170377  1  0
171378  1  6
172379  1  0
172380  1  0
173381  1  0
173382  1  0
179383  1  0
181384  1  0
181385  1  0
182386  1  0
182387  1  0
183388  1  0
183389  1  0
184390  1  0
184391  1  0
185392  1  0
185393  1  0
186394  1  0
186395  1  0
187396  1  0
188397  1  0
188398  1  0
188399  1  0
191400  1  0
192401  1  1
193402  1  0
193403  1  0
194404  1  0
194405  1  0
196406  1  0
196407  1  0
200408  1  0
201409  1  6
202410  1  0
202411  1  0
203412  1  0
203413  1  0
204414  1  0
204415  1  0
205416  1  0
207417  1  0
207418  1  0
208419  1  0
208420  1  0
M  CHG  8  48   1  77   1  88   1 119   1 130   1 141   1 166   1 176  -1
M  CHG  2 207   1 211  -1
M  END
