
     RDKit          2D

462468  0  0  0  0  0  0  0  0999 V2000
   31.6128  -13.3972    0.0000 C   0  0  0  0  0  0  0  0  0  0  0  0
   32.8672  -14.2198    0.0000 N   0  0  0  0  0  0  0  0  0  0  0  0
   32.7820  -15.7174    0.0000 C   0  0  0  0  0  0  0  0  0  0  0  0
   31.4424  -16.3924    0.0000 C   0  0  0  0  0  0  0  0  0  0  0  0
   31.3572  -17.8900    0.0000 C   0  0  0  0  0  0  0  0  0  0  0  0
   32.6116  -18.7125    0.0000 C   0  0  0  0  0  0  0  0  0  0  0  0
   33.9511  -18.0375    0.0000 C   0  0  0  0  0  0  0  0  0  0  0  0
   34.0363  -16.5399    0.0000 C   0  0  0  0  0  0  0  0  0  0  0  0
   35.0070  -19.1029    0.0000 C   0  0  0  0  0  0  0  0  0  0  0  0
   34.3201  -20.4364    0.0000 O   0  0  0  0  0  0  0  0  0  0  0  0
   32.8396  -20.1951    0.0000 C   0  0  0  0  0  0  0  0  0  0  0  0
   31.7743  -21.2510    0.0000 O   0  0  0  0  0  0  0  0  0  0  0  0
   35.9458  -20.2728    0.0000 C   0  0  0  0  0  0  0  0  0  0  0  0
   37.4284  -20.0448    0.0000 C   0  0  0  0  0  0  0  0  0  0  0  0
   38.3672  -21.2147    0.0000 C   0  0  0  0  0  0  0  0  0  0  0  0
   37.8234  -22.6127    0.0000 C   0  0  0  0  0  0  0  0  0  0  0  0
   36.3408  -22.8407    0.0000 C   0  0  0  0  0  0  0  0  0  0  0  0
   35.4020  -21.6708    0.0000 C   0  0  0  0  0  0  0  0  0  0  0  0
   38.7621  -23.7826    0.0000 O   0  0  0  0  0  0  0  0  0  0  0  0
   37.9722  -18.6468    0.0000 O   0  0  0  0  0  0  0  0  0  0  0  0
   37.0334  -17.4769    0.0000 C   0  0  0  0  0  0  0  0  0  0  0  0
   35.5508  -17.7049    0.0000 C   0  0  0  0  0  0  0  0  0  0  0  0
   35.3039  -16.4286    0.0000 C   0  0  0  0  0  0  0  0  0  0  0  0
   35.5940  -15.6830    0.0000 C   0  0  0  0  0  0  0  0  0  0  0  0
   36.3847  -15.5614    0.0000 C   0  0  0  0  0  0  0  0  0  0  0  0
   36.8853  -16.1854    0.0000 C   0  0  0  0  0  0  0  0  0  0  0  0
   37.1822  -13.5111    0.0000 O   0  0  0  0  0  0  0  0  0  0  0  0
   30.2733  -14.0723    0.0000 S   0  0  0  0  0  0  0  0  0  0  0  0
   31.6980  -11.8997    0.0000 N   0  0  0  0  0  0  0  0  0  0  0  0
   30.4436  -11.0771    0.0000 C   0  0  0  0  0  0  0  0  0  0  0  0
   30.5288   -9.5795    0.0000 C   0  0  0  0  0  0  0  0  0  0  0  0
   29.2745   -8.7570    0.0000 C   0  0  0  0  0  0  0  0  0  0  0  0
   28.6116   -9.1998    0.0000 O   0  0  0  0  0  0  0  0  0  0  0  0
   29.3597   -7.2594    0.0000 N   0  0  0  0  0  0  0  0  0  0  0  0
   28.1053   -6.4368    0.0000 C   0  0  0  0  0  0  0  0  0  0  0  0
   27.5131   -7.8149    0.0000 C   0  0  0  0  0  0  0  0  0  0  0  0
   28.2572   -9.1173    0.0000 O   0  0  0  0  0  0  0  0  0  0  0  0
   27.2080   -5.2348    0.0000 C   0  0  0  0  0  0  0  0  0  0  0  0
   25.8052   -5.7662    0.0000 O   0  0  0  0  0  0  0  0  0  0  0  0
   27.8002   -3.8567    0.0000 N   0  0  0  0  0  0  0  0  0  0  0  0
   26.9028   -2.6547    0.0000 C   0  0  0  0  0  0  0  0  0  0  0  0
   25.8750   -3.7472    0.0000 C   0  0  0  0  0  0  0  0  0  0  0  0
   26.3071   -5.1836    0.0000 C   0  0  0  0  0  0  0  0  0  0  0  0
   25.2792   -6.2761    0.0000 C   0  0  0  0  0  0  0  0  0  0  0  0
   25.5331   -7.7544    0.0000 O   0  0  0  0  0  0  0  0  0  0  0  0
   23.8192   -5.9321    0.0000 O   0  0  0  0  0  0  0  0  0  0  0  0
   26.4707   -1.2183    0.0000 C   0  0  0  0  0  0  0  0  0  0  0  0
   24.9708   -1.2379    0.0000 O   0  0  0  0  0  0  0  0  0  0  0  0
   27.4986   -0.1259    0.0000 N   0  0  0  0  0  0  0  0  0  0  0  0
   27.0664    1.3105    0.0000 C   0  0  0  0  0  0  0  0  0  0  0  0
   25.9713    0.2854    0.0000 C   0  0  0  0  0  0  0  0  0  0  0  0
   24.7020   -0.5138    0.0000 C   0  0  0  0  0  0  0  0  0  0  0  0
   23.3044   -1.0585    0.0000 C   0  0  0  0  0  0  0  0  0  0  0  0
   21.8289   -1.3288    0.0000 C   0  0  0  0  0  0  0  0  0  0  0  0
   20.3290   -1.3149    0.0000 C   0  0  0  0  0  0  0  0  0  0  0  0
   18.8588   -1.0175    0.0000 C   0  0  0  0  0  0  0  0  0  0  0  0
   17.4714   -0.4472    0.0000 C   0  0  0  0  0  0  0  0  0  0  0  0
   28.5453    1.0599    0.0000 C   0  0  0  0  0  0  0  0  0  0  0  0
   27.9477    2.5243    0.0000 C   0  0  0  0  0  0  0  0  0  0  0  0
   29.3230    1.9255    0.0000 O   0  0  0  0  0  0  0  0  0  0  0  0
   28.5834    3.8829    0.0000 N   0  0  0  0  0  0  0  0  0  0  0  0
   28.9505    5.3373    0.0000 C   0  0  0  0  0  0  0  0  0  0  0  0
   30.3301    5.9260    0.0000 C   0  0  0  0  0  0  0  0  0  0  0  0
   31.5298    5.0256    0.0000 C   0  0  0  0  0  0  0  0  0  0  0  0
   32.9094    5.6143    0.0000 C   0  0  0  0  0  0  0  0  0  0  0  0
   32.3491    3.7691    0.0000 C   0  0  0  0  0  0  0  0  0  0  0  0
   29.0357    6.8349    0.0000 C   0  0  0  0  0  0  0  0  0  0  0  0
   30.5164    7.0748    0.0000 O   0  0  0  0  0  0  0  0  0  0  0  0
   28.8359    8.3216    0.0000 N   0  0  0  0  0  0  0  0  0  0  0  0
   28.3584    9.7435    0.0000 C   0  0  0  0  0  0  0  0  0  0  0  0
   29.2007   10.9847    0.0000 C   0  0  0  0  0  0  0  0  0  0  0  0
   30.6968   10.8757    0.0000 C   0  0  0  0  0  0  0  0  0  0  0  0
   27.6204   11.0494    0.0000 C   0  0  0  0  0  0  0  0  0  0  0  0
   28.7364   12.0517    0.0000 O   0  0  0  0  0  0  0  0  0  0  0  0
   26.6486   12.1921    0.0000 N   0  0  0  0  0  0  0  0  0  0  0  0
   25.4781   13.1301    0.0000 C   0  0  0  0  0  0  0  0  0  0  0  0
   25.5158   14.6297    0.0000 C   0  0  0  0  0  0  0  0  0  0  0  0
   24.1513   13.8297    0.0000 C   0  0  0  0  0  0  0  0  0  0  0  0
   24.5482   15.2763    0.0000 O   0  0  0  0  0  0  0  0  0  0  0  0
   22.7160   14.2656    0.0000 N   0  0  0  0  0  0  0  0  0  0  0  0
   21.2242   14.4219    0.0000 C   0  0  0  0  0  0  0  0  0  0  0  0
   20.4451   15.7038    0.0000 C   0  0  0  0  0  0  0  0  0  0  0  0
   21.1657   17.0194    0.0000 C   0  0  0  0  0  0  0  0  0  0  0  0
   20.3866   18.3012    0.0000 C   0  0  0  0  0  0  0  0  0  0  0  0
   21.1072   19.6168    0.0000 O   0  0  0  0  0  0  0  0  0  0  0  0
   18.8870   18.2674    0.0000 O   0  0  0  0  0  0  0  0  0  0  0  0
   19.7297   14.2931    0.0000 C   0  0  0  0  0  0  0  0  0  0  0  0
   19.2816   15.7246    0.0000 O   0  0  0  0  0  0  0  0  0  0  0  0
   18.2866   13.8838    0.0000 N   0  0  0  0  0  0  0  0  0  0  0  0
   16.9471   13.2088    0.0000 C   0  0  0  0  0  0  0  0  0  0  0  0
   15.5987   13.8660    0.0000 C   0  0  0  0  0  0  0  0  0  0  0  0
   15.7595   12.2925    0.0000 C   0  0  0  0  0  0  0  0  0  0  0  0
   14.6086   13.2545    0.0000 O   0  0  0  0  0  0  0  0  0  0  0  0
   14.7668   11.1680    0.0000 N   0  0  0  0  0  0  0  0  0  0  0  0
   14.0049    9.8759    0.0000 C   0  0  0  0  0  0  0  0  0  0  0  0
   12.5152    9.6997    0.0000 C   0  0  0  0  0  0  0  0  0  0  0  0
   11.6179   10.9017    0.0000 C   0  0  0  0  0  0  0  0  0  0  0  0
   10.1180   10.8822    0.0000 C   0  0  0  0  0  0  0  0  0  0  0  0
    9.6360   12.3027    0.0000 N   0  0  0  0  0  0  0  0  0  0  0  0
   10.8379   13.2000    0.0000 C   0  0  0  0  0  0  0  0  0  0  0  0
   12.0628   12.3342    0.0000 N   0  0  0  0  0  0  0  0  0  0  0  0
   13.5012    8.4630    0.0000 C   0  0  0  0  0  0  0  0  0  0  0  0
   12.0129    8.6500    0.0000 O   0  0  0  0  0  0  0  0  0  0  0  0
   13.2740    6.9803    0.0000 N   0  0  0  0  0  0  0  0  0  0  0  0
   13.3316    5.4814    0.0000 C   0  0  0  0  0  0  0  0  0  0  0  0
   13.6718    4.0205    0.0000 C   0  0  0  0  0  0  0  0  0  0  0  0
   14.2823    2.6503    0.0000 C   0  0  0  0  0  0  0  0  0  0  0  0
   15.1411    1.4205    0.0000 C   0  0  0  0  0  0  0  0  0  0  0  0
   16.2171    0.3754    0.0000 C   0  0  0  0  0  0  0  0  0  0  0  0
   11.9630    6.0954    0.0000 C   0  0  0  0  0  0  0  0  0  0  0  0
   12.1737    4.5278    0.0000 C   0  0  0  0  0  0  0  0  0  0  0  0
   12.0552    3.0325    0.0000 O   0  0  0  0  0  0  0  0  0  0  0  0
   10.7689    5.0538    0.0000 N   0  0  0  0  0  0  0  0  0  0  0  0
    9.6110    4.1003    0.0000 C   0  0  0  0  0  0  0  0  0  0  0  0
    8.8491    2.8082    0.0000 C   0  0  0  0  0  0  0  0  0  0  0  0
    7.3491    2.8221    0.0000 C   0  0  0  0  0  0  0  0  0  0  0  0
    6.5872    1.5300    0.0000 C   0  0  0  0  0  0  0  0  0  0  0  0
    5.9444    3.3481    0.0000 C   0  0  0  0  0  0  0  0  0  0  0  0
    8.2063    4.6263    0.0000 C   0  0  0  0  0  0  0  0  0  0  0  0
    7.9594    6.1059    0.0000 O   0  0  0  0  0  0  0  0  0  0  0  0
    7.0484    3.6728    0.0000 N   0  0  0  0  0  0  0  0  0  0  0  0
    5.6436    4.1988    0.0000 C   0  0  0  0  0  0  0  0  0  0  0  0
    4.5035    5.1735    0.0000 C   0  0  0  0  0  0  0  0  0  0  0  0
    4.7776    6.6483    0.0000 S   0  0  0  0  0  0  0  0  0  0  0  0
    4.4857    3.2452    0.0000 C   0  0  0  0  0  0  0  0  0  0  0  0
    4.5504    1.7466    0.0000 O   0  0  0  0  0  0  0  0  0  0  0  0
    3.0810    3.7712    0.0000 N   0  0  0  0  0  0  0  0  0  0  0  0
    1.9231    2.8177    0.0000 C   0  0  0  0  0  0  0  0  0  0  0  0
    1.1611    1.5256    0.0000 C   0  0  0  0  0  0  0  0  0  0  0  0
    0.8870    0.0509    0.0000 O   0  0  0  0  0  0  0  0  0  0  0  0
   -0.3293    1.3565    0.0000 C   0  0  0  0  0  0  0  0  0  0  0  0
    0.5183    3.3437    0.0000 C   0  0  0  0  0  0  0  0  0  0  0  0
    0.2715    4.8232    0.0000 O   0  0  0  0  0  0  0  0  0  0  0  0
   -0.6396    2.3902    0.0000 N   0  0  0  0  0  0  0  0  0  0  0  0
   -2.0443    2.9162    0.0000 C   0  0  0  0  0  0  0  0  0  0  0  0
   -3.1845    3.8909    0.0000 C   0  0  0  0  0  0  0  0  0  0  0  0
   -2.9104    5.3656    0.0000 C   0  0  0  0  0  0  0  0  0  0  0  0
   -4.0505    6.3404    0.0000 C   0  0  0  0  0  0  0  0  0  0  0  0
   -2.1484    6.6577    0.0000 C   0  0  0  0  0  0  0  0  0  0  0  0
   -3.2023    1.9626    0.0000 C   0  0  0  0  0  0  0  0  0  0  0  0
   -2.9554    0.4831    0.0000 O   0  0  0  0  0  0  0  0  0  0  0  0
   -4.6070    2.4886    0.0000 N   0  0  0  0  0  0  0  0  0  0  0  0
   -5.7649    1.5351    0.0000 C   0  0  0  0  0  0  0  0  0  0  0  0
   -6.5269    0.2430    0.0000 C   0  0  0  0  0  0  0  0  0  0  0  0
   -8.0268    0.2568    0.0000 C   0  0  0  0  0  0  0  0  0  0  0  0
   -8.7887   -1.0352    0.0000 C   0  0  0  0  0  0  0  0  0  0  0  0
   -9.4315    0.7829    0.0000 C   0  0  0  0  0  0  0  0  0  0  0  0
   -7.1697    2.0611    0.0000 C   0  0  0  0  0  0  0  0  0  0  0  0
   -7.4165    3.5406    0.0000 O   0  0  0  0  0  0  0  0  0  0  0  0
   -8.3276    1.1075    0.0000 N   0  0  0  0  0  0  0  0  0  0  0  0
   -9.7323    1.6336    0.0000 C   0  0  0  0  0  0  0  0  0  0  0  0
  -10.8724    2.6083    0.0000 C   0  0  0  0  0  0  0  0  0  0  0  0
  -10.5984    4.0830    0.0000 C   0  0  0  0  0  0  0  0  0  0  0  0
  -11.7385    5.0578    0.0000 C   0  0  0  0  0  0  0  0  0  0  0  0
  -11.4644    6.5325    0.0000 O   0  0  0  0  0  0  0  0  0  0  0  0
  -13.1527    4.5578    0.0000 O   0  0  0  0  0  0  0  0  0  0  0  0
  -10.8902    0.6800    0.0000 C   0  0  0  0  0  0  0  0  0  0  0  0
  -10.8256   -0.8186    0.0000 O   0  0  0  0  0  0  0  0  0  0  0  0
  -12.2950    1.2060    0.0000 N   0  0  0  0  0  0  0  0  0  0  0  0
  -13.4529    0.2525    0.0000 C   0  0  0  0  0  0  0  0  0  0  0  0
  -14.2148   -1.0396    0.0000 C   0  0  0  0  0  0  0  0  0  0  0  0
  -15.7148   -1.0258    0.0000 C   0  0  0  0  0  0  0  0  0  0  0  0
  -16.4767   -2.3178    0.0000 N   0  0  0  0  0  0  0  0  0  0  0  0
  -16.7468    0.0628    0.0000 O   0  0  0  0  0  0  0  0  0  0  0  0
  -14.8576    0.7785    0.0000 C   0  0  0  0  0  0  0  0  0  0  0  0
  -15.1045    2.2580    0.0000 O   0  0  0  0  0  0  0  0  0  0  0  0
  -16.0155   -0.1751    0.0000 N   0  0  0  0  0  0  0  0  0  0  0  0
  -17.4203    0.3509    0.0000 C   0  0  0  0  0  0  0  0  0  0  0  0
  -18.5604    1.3257    0.0000 C   0  0  0  0  0  0  0  0  0  0  0  0
  -18.5782   -0.6026    0.0000 C   0  0  0  0  0  0  0  0  0  0  0  0
  -18.5136   -2.1012    0.0000 O   0  0  0  0  0  0  0  0  0  0  0  0
  -19.9829   -0.0766    0.0000 N   0  0  0  0  0  0  0  0  0  0  0  0
  -21.1409   -1.0301    0.0000 C   0  0  0  0  0  0  0  0  0  0  0  0
  -21.9028   -2.3222    0.0000 C   0  0  0  0  0  0  0  0  0  0  0  0
  -23.3932   -2.4913    0.0000 C   0  0  0  0  0  0  0  0  0  0  0  0
  -22.1769   -3.7970    0.0000 C   0  0  0  0  0  0  0  0  0  0  0  0
  -21.0368   -4.7717    0.0000 C   0  0  0  0  0  0  0  0  0  0  0  0
  -22.5456   -0.5041    0.0000 C   0  0  0  0  0  0  0  0  0  0  0  0
  -22.7924    0.9754    0.0000 O   0  0  0  0  0  0  0  0  0  0  0  0
  -23.7035   -1.4577    0.0000 N   0  0  0  0  0  0  0  0  0  0  0  0
  -25.1083   -0.9317    0.0000 C   0  0  0  0  0  0  0  0  0  0  0  0
  -26.2484    0.0431    0.0000 C   0  0  0  0  0  0  0  0  0  0  0  0
  -25.9743    1.5178    0.0000 C   0  0  0  0  0  0  0  0  0  0  0  0
  -27.1144    2.4926    0.0000 C   0  0  0  0  0  0  0  0  0  0  0  0
  -26.8403    3.9673    0.0000 N   0  0  0  0  0  0  0  0  0  0  0  0
  -28.5286    1.9925    0.0000 O   0  0  0  0  0  0  0  0  0  0  0  0
  -26.2662   -1.8852    0.0000 C   0  0  0  0  0  0  0  0  0  0  0  0
  -26.0193   -3.3648    0.0000 O   0  0  0  0  0  0  0  0  0  0  0  0
  -27.6709   -1.3592    0.0000 N   0  0  0  0  0  0  0  0  0  0  0  0
  -28.8288   -2.3127    0.0000 C   0  0  0  0  0  0  0  0  0  0  0  0
  -29.5908   -3.6048    0.0000 C   0  0  0  0  0  0  0  0  0  0  0  0
  -31.0907   -3.5910    0.0000 C   0  0  0  0  0  0  0  0  0  0  0  0
  -31.8527   -4.8830    0.0000 O   0  0  0  0  0  0  0  0  0  0  0  0
  -32.1228   -2.5025    0.0000 O   0  0  0  0  0  0  0  0  0  0  0  0
  -30.2336   -1.7867    0.0000 C   0  0  0  0  0  0  0  0  0  0  0  0
  -30.4804   -0.3072    0.0000 O   0  0  0  0  0  0  0  0  0  0  0  0
  -31.3915   -2.7403    0.0000 N   0  0  0  0  0  0  0  0  0  0  0  0
  -32.7962   -2.2143    0.0000 C   0  0  0  0  0  0  0  0  0  0  0  0
  -33.9364   -1.2395    0.0000 C   0  0  0  0  0  0  0  0  0  0  0  0
  -34.6743    0.0664    0.0000 O   0  0  0  0  0  0  0  0  0  0  0  0
  -35.4010   -1.5634    0.0000 C   0  0  0  0  0  0  0  0  0  0  0  0
  -33.9541   -3.1678    0.0000 C   0  0  0  0  0  0  0  0  0  0  0  0
  -33.7073   -4.6474    0.0000 O   0  0  0  0  0  0  0  0  0  0  0  0
  -35.3589   -2.6418    0.0000 N   0  0  0  0  0  0  0  0  0  0  0  0
  -36.5168   -3.5954    0.0000 C   0  0  0  0  0  0  0  0  0  0  0  0
  -37.2787   -4.8874    0.0000 C   0  0  0  0  0  0  0  0  0  0  0  0
  -38.7692   -5.0565    0.0000 C   0  0  0  0  0  0  0  0  0  0  0  0
  -37.9215   -3.0694    0.0000 C   0  0  0  0  0  0  0  0  0  0  0  0
  -38.1684   -1.5898    0.0000 O   0  0  0  0  0  0  0  0  0  0  0  0
  -39.0795   -4.0229    0.0000 N   0  0  0  0  0  0  0  0  0  0  0  0
  -40.4842   -3.4969    0.0000 C   0  0  0  0  0  0  0  0  0  0  0  0
  -41.6243   -2.5222    0.0000 C   0  0  0  0  0  0  0  0  0  0  0  0
  -41.3502   -1.0474    0.0000 C   0  0  0  0  0  0  0  0  0  0  0  0
  -42.4904   -0.0727    0.0000 C   0  0  0  0  0  0  0  0  0  0  0  0
  -42.2163    1.4021    0.0000 N   0  0  0  0  0  0  0  0  0  0  0  0
  -43.3564    2.3768    0.0000 C   0  0  0  0  0  0  0  0  0  0  0  0
  -43.0823    3.8516    0.0000 N   0  0  0  0  0  0  0  0  0  0  0  0
  -44.7706    1.8768    0.0000 N   0  0  0  0  0  0  0  0  0  0  0  0
  -41.6421   -4.4504    0.0000 C   0  0  0  0  0  0  0  0  0  0  0  0
  -41.3953   -5.9300    0.0000 O   0  0  0  0  0  0  0  0  0  0  0  0
  -43.0469   -3.9244    0.0000 N   0  0  0  0  0  0  0  0  0  0  0  0
  -44.2048   -4.8780    0.0000 C   0  0  0  0  0  0  0  0  0  0  0  0
  -44.9667   -6.1700    0.0000 C   0  0  0  0  0  0  0  0  0  0  0  0
  -46.4667   -6.1562    0.0000 C   0  0  0  0  0  0  0  0  0  0  0  0
  -47.2286   -7.4483    0.0000 C   0  0  0  0  0  0  0  0  0  0  0  0
  -48.7190   -7.6174    0.0000 O   0  0  0  0  0  0  0  0  0  0  0  0
  -46.4906   -8.7542    0.0000 O   0  0  0  0  0  0  0  0  0  0  0  0
  -45.6095   -4.3520    0.0000 C   0  0  0  0  0  0  0  0  0  0  0  0
  -45.8564   -2.8724    0.0000 O   0  0  0  0  0  0  0  0  0  0  0  0
  -46.7674   -5.3055    0.0000 N   0  0  0  0  0  0  0  0  0  0  0  0
  -48.1722   -4.7795    0.0000 C   0  0  0  0  0  0  0  0  0  0  0  0
  -49.3123   -3.8048    0.0000 C   0  0  0  0  0  0  0  0  0  0  0  0
  -49.0382   -2.3300    0.0000 C   0  0  0  0  0  0  0  0  0  0  0  0
  -50.1783   -1.3553    0.0000 C   0  0  0  0  0  0  0  0  0  0  0  0
  -49.9043    0.1195    0.0000 N   0  0  0  0  0  0  0  0  0  0  0  0
  -51.5926   -1.8553    0.0000 O   0  0  0  0  0  0  0  0  0  0  0  0
  -49.3301   -5.7330    0.0000 C   0  0  0  0  0  0  0  0  0  0  0  0
  -50.7885   -5.3822    0.0000 O   0  0  0  0  0  0  0  0  0  0  0  0
  -49.2654   -7.2316    0.0000 O   0  0  0  0  0  0  0  0  0  0  0  0
   34.1144  -13.3865    0.0000 H   0  0  0  0  0  0  0  0  0  0  0  0
   30.1881  -15.5698    0.0000 H   0  0  0  0  0  0  0  0  0  0  0  0
   30.0177  -18.5650    0.0000 H   0  0  0  0  0  0  0  0  0  0  0  0
   35.1727  -15.5609    0.0000 H   0  0  0  0  0  0  0  0  0  0  0  0
   39.8497  -20.9867    0.0000 H   0  0  0  0  0  0  0  0  0  0  0  0
   35.7970  -24.2387    0.0000 H   0  0  0  0  0  0  0  0  0  0  0  0
   33.9195  -21.8988    0.0000 H   0  0  0  0  0  0  0  0  0  0  0  0
   38.2183  -25.1805    0.0000 H   0  0  0  0  0  0  0  0  0  0  0  0
   33.1295  -16.7631    0.0000 H   0  0  0  0  0  0  0  0  0  0  0  0
   34.3667  -13.8614    0.0000 H   0  0  0  0  0  0  0  0  0  0  0  0
   39.0598  -15.8509    0.0000 H   0  0  0  0  0  0  0  0  0  0  0  0
   38.6648  -13.2830    0.0000 H   0  0  0  0  0  0  0  0  0  0  0  0
   33.0375  -11.2246    0.0000 H   0  0  0  0  0  0  0  0  0  0  0  0
   29.8514  -12.4552    0.0000 H   0  0  0  0  0  0  0  0  0  0  0  0
   28.9836  -10.7332    0.0000 H   0  0  0  0  0  0  0  0  0  0  0  0
   31.9889   -9.9235    0.0000 H   0  0  0  0  0  0  0  0  0  0  0  0
   31.1211   -8.2014    0.0000 H   0  0  0  0  0  0  0  0  0  0  0  0
   30.6992   -6.5844    0.0000 H   0  0  0  0  0  0  0  0  0  0  0  0
   29.1332   -5.3444    0.0000 H   0  0  0  0  0  0  0  0  0  0  0  0
   26.4852   -8.9074    0.0000 H   0  0  0  0  0  0  0  0  0  0  0  0
   26.1678   -7.1514    0.0000 H   0  0  0  0  0  0  0  0  0  0  0  0
   27.8182  -10.3950    0.0000 H   0  0  0  0  0  0  0  0  0  0  0  0
   29.2898   -3.6806    0.0000 H   0  0  0  0  0  0  0  0  0  0  0  0
   28.2424   -1.9797    0.0000 H   0  0  0  0  0  0  0  0  0  0  0  0
   24.5354   -4.4222    0.0000 H   0  0  0  0  0  0  0  0  0  0  0  0
   24.9776   -2.5452    0.0000 H   0  0  0  0  0  0  0  0  0  0  0  0
   27.2045   -6.3856    0.0000 H   0  0  0  0  0  0  0  0  0  0  0  0
   27.7702   -4.8528    0.0000 H   0  0  0  0  0  0  0  0  0  0  0  0
   28.9058   -0.6452    0.0000 H   0  0  0  0  0  0  0  0  0  0  0  0
   27.2070   -0.5648    0.0000 H   0  0  0  0  0  0  0  0  0  0  0  0
   25.9408   -1.2142    0.0000 H   0  0  0  0  0  0  0  0  0  0  0  0
   25.6164   -1.7029    0.0000 H   0  0  0  0  0  0  0  0  0  0  0  0
   24.5694   -2.0080    0.0000 H   0  0  0  0  0  0  0  0  0  0  0  0
   24.4130   -2.0689    0.0000 H   0  0  0  0  0  0  0  0  0  0  0  0
   23.0702   -2.5401    0.0000 H   0  0  0  0  0  0  0  0  0  0  0  0
   22.5731   -2.6311    0.0000 H   0  0  0  0  0  0  0  0  0  0  0  0
   21.3186   -2.7393    0.0000 H   0  0  0  0  0  0  0  0  0  0  0  0
   20.8132   -2.7346    0.0000 H   0  0  0  0  0  0  0  0  0  0  0  0
   19.5609   -2.6034    0.0000 H   0  0  0  0  0  0  0  0  0  0  0  0
   19.0656   -2.5031    0.0000 H   0  0  0  0  0  0  0  0  0  0  0  0
   17.7317   -2.0073    0.0000 H   0  0  0  0  0  0  0  0  0  0  0  0
   16.7718   -1.7740    0.0000 H   0  0  0  0  0  0  0  0  0  0  0  0
   29.2352   -0.2721    0.0000 H   0  0  0  0  0  0  0  0  0  0  0  0
   30.0427    1.1483    0.0000 H   0  0  0  0  0  0  0  0  0  0  0  0
   28.8986    2.5177    0.0000 H   0  0  0  0  0  0  0  0  0  0  0  0
   29.9244    3.2108    0.0000 H   0  0  0  0  0  0  0  0  0  0  0  0
   29.9633    4.2309    0.0000 H   0  0  0  0  0  0  0  0  0  0  0  0
   31.4252    6.9511    0.0000 H   0  0  0  0  0  0  0  0  0  0  0  0
   29.8392    7.3434    0.0000 H   0  0  0  0  0  0  0  0  0  0  0  0
   30.7153    3.7660    0.0000 H   0  0  0  0  0  0  0  0  0  0  0  0
   34.2099    4.8668    0.0000 H   0  0  0  0  0  0  0  0  0  0  0  0
   34.0045    6.6393    0.0000 H   0  0  0  0  0  0  0  0  0  0  0  0
   32.2494    6.9612    0.0000 H   0  0  0  0  0  0  0  0  0  0  0  0
   33.8456    3.6673    0.0000 H   0  0  0  0  0  0  0  0  0  0  0  0
   32.6893    2.3082    0.0000 H   0  0  0  0  0  0  0  0  0  0  0  0
   30.9695    3.1804    0.0000 H   0  0  0  0  0  0  0  0  0  0  0  0
   30.3274    8.4811    0.0000 H   0  0  0  0  0  0  0  0  0  0  0  0
   29.8086    9.3603    0.0000 H   0  0  0  0  0  0  0  0  0  0  0  0
   29.7424   12.3835    0.0000 H   0  0  0  0  0  0  0  0  0  0  0  0
   28.0214   11.9116    0.0000 H   0  0  0  0  0  0  0  0  0  0  0  0
   31.5391   12.1169    0.0000 H   0  0  0  0  0  0  0  0  0  0  0  0
   32.0653   10.2617    0.0000 H   0  0  0  0  0  0  0  0  0  0  0  0
   30.6926    9.3757    0.0000 H   0  0  0  0  0  0  0  0  0  0  0  0
   27.6937   13.2681    0.0000 H   0  0  0  0  0  0  0  0  0  0  0  0
   26.8384   13.7623    0.0000 H   0  0  0  0  0  0  0  0  0  0  0  0
   26.8332   15.3468    0.0000 H   0  0  0  0  0  0  0  0  0  0  0  0
   25.2151   16.0992    0.0000 H   0  0  0  0  0  0  0  0  0  0  0  0
   24.0225   14.7719    0.0000 H   0  0  0  0  0  0  0  0  0  0  0  0
   23.1904   15.6886    0.0000 H   0  0  0  0  0  0  0  0  0  0  0  0
   22.1752   15.5819    0.0000 H   0  0  0  0  0  0  0  0  0  0  0  0
   19.3977   16.7775    0.0000 H   0  0  0  0  0  0  0  0  0  0  0  0
   19.1120   15.0161    0.0000 H   0  0  0  0  0  0  0  0  0  0  0  0
   22.2927   18.0092    0.0000 H   0  0  0  0  0  0  0  0  0  0  0  0
   22.5284   16.3924    0.0000 H   0  0  0  0  0  0  0  0  0  0  0  0
   17.7420   15.2815    0.0000 H   0  0  0  0  0  0  0  0  0  0  0  0
   16.9371   14.7088    0.0000 H   0  0  0  0  0  0  0  0  0  0  0  0
   15.4936   15.3623    0.0000 H   0  0  0  0  0  0  0  0  0  0  0  0
   14.1371   14.2030    0.0000 H   0  0  0  0  0  0  0  0  0  0  0  0
   14.8490   12.5667    0.0000 H   0  0  0  0  0  0  0  0  0  0  0  0
   13.5530   12.0493    0.0000 H   0  0  0  0  0  0  0  0  0  0  0  0
   13.1855   11.1324    0.0000 H   0  0  0  0  0  0  0  0  0  0  0  0
   11.1034    9.1930    0.0000 H   0  0  0  0  0  0  0  0  0  0  0  0
   12.5870    8.2015    0.0000 H   0  0  0  0  0  0  0  0  0  0  0  0
    9.2522    9.6573    0.0000 H   0  0  0  0  0  0  0  0  0  0  0  0
    8.2035   12.7476    0.0000 H   0  0  0  0  0  0  0  0  0  0  0  0
   10.8185   14.6999    0.0000 H   0  0  0  0  0  0  0  0  0  0  0  0
   11.7980    7.2474    0.0000 H   0  0  0  0  0  0  0  0  0  0  0  0
   12.7153    2.8650    0.0000 H   0  0  0  0  0  0  0  0  0  0  0  0
   12.1719    4.0009    0.0000 H   0  0  0  0  0  0  0  0  0  0  0  0
   13.4067    1.4324    0.0000 H   0  0  0  0  0  0  0  0  0  0  0  0
   12.8132    2.3473    0.0000 H   0  0  0  0  0  0  0  0  0  0  0  0
   14.6825   -0.0077    0.0000 H   0  0  0  0  0  0  0  0  0  0  0  0
   13.6961    1.0180    0.0000 H   0  0  0  0  0  0  0  0  0  0  0  0
   15.2790   -0.7951    0.0000 H   0  0  0  0  0  0  0  0  0  0  0  0
   10.5706    5.5376    0.0000 H   0  0  0  0  0  0  0  0  0  0  0  0
   10.8870    7.1405    0.0000 H   0  0  0  0  0  0  0  0  0  0  0  0
   12.4800    7.5035    0.0000 H   0  0  0  0  0  0  0  0  0  0  0  0
   10.3436    6.4923    0.0000 H   0  0  0  0  0  0  0  0  0  0  0  0
   10.7512    3.1256    0.0000 H   0  0  0  0  0  0  0  0  0  0  0  0
    8.7568    1.3111    0.0000 H   0  0  0  0  0  0  0  0  0  0  0  0
   10.2538    2.2822    0.0000 H   0  0  0  0  0  0  0  0  0  0  0  0
    6.8986    4.2528    0.0000 H   0  0  0  0  0  0  0  0  0  0  0  0
    5.1285    1.1805    0.0000 H   0  0  0  0  0  0  0  0  0  0  0  0
    6.3131    0.0553    0.0000 H   0  0  0  0  0  0  0  0  0  0  0  0
    7.9174    0.8367    0.0000 H   0  0  0  0  0  0  0  0  0  0  0  0
    5.3469    4.7239    0.0000 H   0  0  0  0  0  0  0  0  0  0  0  0
    4.5392    2.8233    0.0000 H   0  0  0  0  0  0  0  0  0  0  0  0
    5.4926    1.9177    0.0000 H   0  0  0  0  0  0  0  0  0  0  0  0
    6.9299    2.1775    0.0000 H   0  0  0  0  0  0  0  0  0  0  0  0
    6.4056    5.4908    0.0000 H   0  0  0  0  0  0  0  0  0  0  0  0
    3.1733    5.8668    0.0000 H   0  0  0  0  0  0  0  0  0  0  0  0
    3.3291    4.2404    0.0000 H   0  0  0  0  0  0  0  0  0  0  0  0
    3.6375    7.6230    0.0000 H   0  0  0  0  0  0  0  0  0  0  0  0
    2.6556    5.2097    0.0000 H   0  0  0  0  0  0  0  0  0  0  0  0
    3.0632    1.8430    0.0000 H   0  0  0  0  0  0  0  0  0  0  0  0
    2.5659    0.9996    0.0000 H   0  0  0  0  0  0  0  0  0  0  0  0
    2.0272   -0.9239    0.0000 H   0  0  0  0  0  0  0  0  0  0  0  0
   -1.1008    0.2474    0.0000 H   0  0  0  0  0  0  0  0  0  0  0  0
   -1.7436    2.0655    0.0000 H   0  0  0  0  0  0  0  0  0  0  0  0
   -0.7893    2.9702    0.0000 H   0  0  0  0  0  0  0  0  0  0  0  0
   -0.5750    0.8915    0.0000 H   0  0  0  0  0  0  0  0  0  0  0  0
   -1.1306    4.1057    0.0000 H   0  0  0  0  0  0  0  0  0  0  0  0
   -4.5892    4.4169    0.0000 H   0  0  0  0  0  0  0  0  0  0  0  0
   -4.2364    2.8216    0.0000 H   0  0  0  0  0  0  0  0  0  0  0  0
   -1.4520    5.0148    0.0000 H   0  0  0  0  0  0  0  0  0  0  0  0
   -3.9582    7.8375    0.0000 H   0  0  0  0  0  0  0  0  0  0  0  0
   -5.4553    6.8664    0.0000 H   0  0  0  0  0  0  0  0  0  0  0  0
   -4.9643    5.1508    0.0000 H   0  0  0  0  0  0  0  0  0  0  0  0
   -2.7217    8.0438    0.0000 H   0  0  0  0  0  0  0  0  0  0  0  0
   -0.9905    7.6113    0.0000 H   0  0  0  0  0  0  0  0  0  0  0  0
   -1.0083    5.6830    0.0000 H   0  0  0  0  0  0  0  0  0  0  0  0
   -5.0324    3.9271    0.0000 H   0  0  0  0  0  0  0  0  0  0  0  0
   -4.6248    0.5603    0.0000 H   0  0  0  0  0  0  0  0  0  0  0  0
   -6.6191   -1.2541    0.0000 H   0  0  0  0  0  0  0  0  0  0  0  0
   -5.1221   -0.2830    0.0000 H   0  0  0  0  0  0  0  0  0  0  0  0
   -8.4773    1.6876    0.0000 H   0  0  0  0  0  0  0  0  0  0  0  0
  -10.2475   -1.3847    0.0000 H   0  0  0  0  0  0  0  0  0  0  0  0
   -9.0628   -2.5100    0.0000 H   0  0  0  0  0  0  0  0  0  0  0  0
   -7.4586   -1.7285    0.0000 H   0  0  0  0  0  0  0  0  0  0  0  0
  -10.0291    2.1587    0.0000 H   0  0  0  0  0  0  0  0  0  0  0  0
  -10.8368    0.2581    0.0000 H   0  0  0  0  0  0  0  0  0  0  0  0
   -9.8833   -0.6475    0.0000 H   0  0  0  0  0  0  0  0  0  0  0  0
   -8.4461   -0.3878    0.0000 H   0  0  0  0  0  0  0  0  0  0  0  0
   -8.8186    2.8231    0.0000 H   0  0  0  0  0  0  0  0  0  0  0  0
  -12.2026    3.3016    0.0000 H   0  0  0  0  0  0  0  0  0  0  0  0
  -12.0469    1.6752    0.0000 H   0  0  0  0  0  0  0  0  0  0  0  0
   -9.8364    5.3751    0.0000 H   0  0  0  0  0  0  0  0  0  0  0  0
   -9.1400    3.7322    0.0000 H   0  0  0  0  0  0  0  0  0  0  0  0
  -12.7203    2.6444    0.0000 H   0  0  0  0  0  0  0  0  0  0  0  0
  -12.3128   -0.7223    0.0000 H   0  0  0  0  0  0  0  0  0  0  0  0
  -14.4889   -2.5143    0.0000 H   0  0  0  0  0  0  0  0  0  0  0  0
  -12.8101   -1.5656    0.0000 H   0  0  0  0  0  0  0  0  0  0  0  0
  -17.9672   -2.4869    0.0000 H   0  0  0  0  0  0  0  0  0  0  0  0
  -15.7387   -3.6237    0.0000 H   0  0  0  0  0  0  0  0  0  0  0  0
  -16.1341   -1.6704    0.0000 H   0  0  0  0  0  0  0  0  0  0  0  0
  -16.6583    1.6430    0.0000 H   0  0  0  0  0  0  0  0  0  0  0  0
  -20.0599    1.3658    0.0000 H   0  0  0  0  0  0  0  0  0  0  0  0
  -19.2984    2.6316    0.0000 H   0  0  0  0  0  0  0  0  0  0  0  0
  -17.4025    2.2792    0.0000 H   0  0  0  0  0  0  0  0  0  0  0  0
  -20.4083    1.3618    0.0000 H   0  0  0  0  0  0  0  0  0  0  0  0
  -20.0007   -2.0049    0.0000 H   0  0  0  0  0  0  0  0  0  0  0  0
  -20.4444   -2.6731    0.0000 H   0  0  0  0  0  0  0  0  0  0  0  0
  -24.3165   -3.4979    0.0000 H   0  0  0  0  0  0  0  0  0  0  0  0
  -24.8075   -1.7824    0.0000 H   0  0  0  0  0  0  0  0  0  0  0  0
  -23.8532   -0.8776    0.0000 H   0  0  0  0  0  0  0  0  0  0  0  0
  -22.9388   -5.0890    0.0000 H   0  0  0  0  0  0  0  0  0  0  0  0
  -23.6672   -3.6265    0.0000 H   0  0  0  0  0  0  0  0  0  0  0  0
  -21.3108   -6.2464    0.0000 H   0  0  0  0  0  0  0  0  0  0  0  0
  -19.6320   -5.2977    0.0000 H   0  0  0  0  0  0  0  0  0  0  0  0
  -20.1230   -3.5821    0.0000 H   0  0  0  0  0  0  0  0  0  0  0  0
  -23.8220   -2.9530    0.0000 H   0  0  0  0  0  0  0  0  0  0  0  0
  -24.1945    0.2579    0.0000 H   0  0  0  0  0  0  0  0  0  0  0  0
  -27.5785    0.7364    0.0000 H   0  0  0  0  0  0  0  0  0  0  0  0
  -27.3003   -1.0262    0.0000 H   0  0  0  0  0  0  0  0  0  0  0  0
  -25.2124    2.8099    0.0000 H   0  0  0  0  0  0  0  0  0  0  0  0
  -24.5159    1.1670    0.0000 H   0  0  0  0  0  0  0  0  0  0  0  0
  -27.9805    4.9420    0.0000 H   0  0  0  0  0  0  0  0  0  0  0  0
  -25.4261    4.4673    0.0000 H   0  0  0  0  0  0  0  0  0  0  0  0
  -28.0963    0.0792    0.0000 H   0  0  0  0  0  0  0  0  0  0  0  0
  -27.6887   -3.2875    0.0000 H   0  0  0  0  0  0  0  0  0  0  0  0
  -29.8649   -5.0796    0.0000 H   0  0  0  0  0  0  0  0  0  0  0  0
  -28.1860   -4.1308    0.0000 H   0  0  0  0  0  0  0  0  0  0  0  0
  -31.5100   -4.2356    0.0000 H   0  0  0  0  0  0  0  0  0  0  0  0
  -32.0343   -0.9222    0.0000 H   0  0  0  0  0  0  0  0  0  0  0  0
  -32.7784   -0.2860    0.0000 H   0  0  0  0  0  0  0  0  0  0  0  0
  -33.9124    1.3584    0.0000 H   0  0  0  0  0  0  0  0  0  0  0  0
  -36.4907   -0.7648    0.0000 H   0  0  0  0  0  0  0  0  0  0  0  0
  -36.5085   -2.6931    0.0000 H   0  0  0  0  0  0  0  0  0  0  0  0
  -35.3122   -3.2391    0.0000 H   0  0  0  0  0  0  0  0  0  0  0  0
  -35.7842   -1.2034    0.0000 H   0  0  0  0  0  0  0  0  0  0  0  0
  -35.3767   -4.5701    0.0000 H   0  0  0  0  0  0  0  0  0  0  0  0
  -37.5528   -6.3622    0.0000 H   0  0  0  0  0  0  0  0  0  0  0  0
  -35.8740   -5.4134    0.0000 H   0  0  0  0  0  0  0  0  0  0  0  0
  -39.5406   -6.1657    0.0000 H   0  0  0  0  0  0  0  0  0  0  0  0
  -40.1834   -4.3476    0.0000 H   0  0  0  0  0  0  0  0  0  0  0  0
  -39.2292   -3.4428    0.0000 H   0  0  0  0  0  0  0  0  0  0  0  0
  -39.0148   -5.5215    0.0000 H   0  0  0  0  0  0  0  0  0  0  0  0
  -39.5704   -2.3073    0.0000 H   0  0  0  0  0  0  0  0  0  0  0  0
  -43.0291   -1.9961    0.0000 H   0  0  0  0  0  0  0  0  0  0  0  0
  -42.6763   -3.5914    0.0000 H   0  0  0  0  0  0  0  0  0  0  0  0
  -40.5883    0.2447    0.0000 H   0  0  0  0  0  0  0  0  0  0  0  0
  -39.8919   -1.3983    0.0000 H   0  0  0  0  0  0  0  0  0  0  0  0
  -43.8951    0.4533    0.0000 H   0  0  0  0  0  0  0  0  0  0  0  0
  -43.4041   -1.2622    0.0000 H   0  0  0  0  0  0  0  0  0  0  0  0
  -40.8021    1.9021    0.0000 H   0  0  0  0  0  0  0  0  0  0  0  0
  -44.2225    4.8263    0.0000 H   0  0  0  0  0  0  0  0  0  0  0  0
  -41.6681    4.3516    0.0000 H   0  0  0  0  0  0  0  0  0  0  0  0
  -45.9108    2.8515    0.0000 H   0  0  0  0  0  0  0  0  0  0  0  0
  -45.0447    0.4021    0.0000 H   0  0  0  0  0  0  0  0  0  0  0  0
  -43.4722   -2.4860    0.0000 H   0  0  0  0  0  0  0  0  0  0  0  0
  -43.0646   -5.8527    0.0000 H   0  0  0  0  0  0  0  0  0  0  0  0
  -45.2408   -7.6448    0.0000 H   0  0  0  0  0  0  0  0  0  0  0  0
  -43.5620   -6.6960    0.0000 H   0  0  0  0  0  0  0  0  0  0  0  0
  -47.8714   -5.6302    0.0000 H   0  0  0  0  0  0  0  0  0  0  0  0
  -46.9172   -4.7255    0.0000 H   0  0  0  0  0  0  0  0  0  0  0  0
  -46.8859   -6.8008    0.0000 H   0  0  0  0  0  0  0  0  0  0  0  0
  -47.2584   -3.5899    0.0000 H   0  0  0  0  0  0  0  0  0  0  0  0
  -50.7170   -3.2788    0.0000 H   0  0  0  0  0  0  0  0  0  0  0  0
  -50.2261   -4.9943    0.0000 H   0  0  0  0  0  0  0  0  0  0  0  0
  -48.2763   -1.0379    0.0000 H   0  0  0  0  0  0  0  0  0  0  0  0
  -47.5798   -2.6809    0.0000 H   0  0  0  0  0  0  0  0  0  0  0  0
  -51.0444    1.0942    0.0000 H   0  0  0  0  0  0  0  0  0  0  0  0
  -48.4901    0.6195    0.0000 H   0  0  0  0  0  0  0  0  0  0  0  0
  1  2  1  0
  2  3  1  0
  3  4  2  0
  4  5  1  0
  5  6  2  0
  6  7  1  0
  7  8  2  0
  7  9  1  0
  9 10  1  0
 10 11  1  0
 11 12  2  0
  9 13  1  0
 13 14  1  0
 14 15  2  0
 15 16  1  0
 16 17  2  0
 17 18  1  0
 16 19  1  0
 14 20  1  0
 20 21  1  0
 21 22  2  0
 22 23  1  0
 23 24  2  0
 24 25  1  0
 25 26  2  0
 25 27  1  0
  1 28  2  0
  1 29  1  0
 29 30  1  0
 30 31  1  0
 31 32  1  0
 32 33  2  0
 32 34  1  0
 34 35  1  0
 35 36  1  0
 36 37  1  0
 35 38  1  0
 38 39  2  0
 38 40  1  0
 40 41  1  0
 41 42  1  0
 42 43  1  0
 43 44  1  0
 44 45  2  0
 44 46  1  0
 41 47  1  0
 47 48  2  0
 47 49  1  0
 50 49  1  6
 50 51  1  0
 51 52  1  0
 52 53  1  0
 53 54  1  0
 54 55  1  0
 55 56  1  0
 56 57  1  0
 50 58  1  0
 50 59  1  0
 59 60  2  0
 59 61  1  0
 61 62  1  0
 62 63  1  0
 63 64  1  0
 64 65  1  0
 64 66  1  0
 62 67  1  0
 67 68  2  0
 67 69  1  0
 69 70  1  0
 70 71  1  0
 71 72  1  0
 70 73  1  0
 73 74  2  0
 73 75  1  0
 75 76  1  0
 76 77  1  0
 76 78  1  0
 78 79  2  0
 78 80  1  0
 80 81  1  0
 81 82  1  0
 82 83  1  0
 83 84  1  0
 84 85  2  0
 84 86  1  0
 81 87  1  0
 87 88  2  0
 87 89  1  0
 89 90  1  0
 90 91  1  0
 90 92  1  0
 92 93  2  0
 92 94  1  0
 94 95  1  0
 95 96  1  0
 96 97  1  0
 97 98  2  0
 98 99  1  0
 99100  1  0
100101  2  0
 95102  1  0
102103  2  0
102104  1  0
104105  1  0
105106  1  0
106107  1  0
107108  1  0
108109  1  0
105110  1  0
105111  1  1
111112  2  0
111113  1  0
113114  1  0
114115  1  0
115116  1  0
116117  1  0
116118  1  0
114119  1  0
119120  2  0
119121  1  0
121122  1  0
122123  1  0
123124  1  0
122125  1  0
125126  2  0
125127  1  0
127128  1  0
128129  1  0
129130  1  0
129131  1  0
128132  1  0
132133  2  0
132134  1  0
134135  1  0
135136  1  0
136137  1  0
137138  1  0
137139  1  0
135140  1  0
140141  2  0
140142  1  0
142143  1  0
143144  1  0
144145  1  0
145146  1  0
145147  1  0
143148  1  0
148149  2  0
148150  1  0
150151  1  0
151152  1  0
152153  1  0
153154  1  0
154155  2  0
154156  1  0
151157  1  0
157158  2  0
157159  1  0
159160  1  0
160161  1  0
161162  1  0
162163  1  0
162164  2  0
160165  1  0
165166  2  0
165167  1  0
167168  1  0
168169  1  0
168170  1  0
170171  2  0
170172  1  0
172173  1  0
173174  1  0
174175  1  0
174176  1  0
176177  1  0
173178  1  0
178179  2  0
178180  1  0
180181  1  0
181182  1  0
182183  1  0
183184  1  0
184185  1  0
184186  2  0
181187  1  0
187188  2  0
187189  1  0
189190  1  0
190191  1  0
191192  1  0
192193  2  0
192194  1  0
190195  1  0
195196  2  0
195197  1  0
197198  1  0
198199  1  0
199200  1  0
199201  1  0
198202  1  0
202203  2  0
202204  1  0
204205  1  0
205206  1  0
206207  1  0
205208  1  0
208209  2  0
208210  1  0
210211  1  0
211212  1  0
212213  1  0
213214  1  0
214215  1  0
215216  1  0
216217  2  3
216218  1  0
211219  1  0
219220  2  0
219221  1  0
221222  1  0
222223  1  0
223224  1  0
224225  1  0
225226  2  0
225227  1  0
222228  1  0
228229  2  0
228230  1  0
230231  1  0
231232  1  0
232233  1  0
233234  1  0
234235  1  0
234236  2  0
231237  1  0
237238  2  0
237239  1  0
  8  3  1  0
101 97  1  0
 11  6  1  0
 18 13  2  0
 57109  2  0
 22  9  1  0
 26 21  1  0
  2240  1  0
  4241  1  0
  5242  1  0
  8243  1  0
 15244  1  0
 17245  1  0
 18246  1  0
 19247  1  0
 23248  1  0
 24249  1  0
 26250  1  0
 27251  1  0
 29252  1  0
 30253  1  0
 30254  1  0
 31255  1  0
 31256  1  0
 34257  1  0
 35258  1  1
 36259  1  0
 36260  1  0
 37261  1  0
 40262  1  0
 41263  1  1
 42264  1  0
 42265  1  0
 43266  1  0
 43267  1  0
 49268  1  0
 51269  1  0
 51270  1  0
 52271  1  0
 52272  1  0
 53273  1  0
 53274  1  0
 54275  1  0
 54276  1  0
 55277  1  0
 55278  1  0
 56279  1  0
 56280  1  0
 57281  1  0
 58282  1  0
 58283  1  0
 58284  1  0
 61285  1  0
 62286  1  6
 63287  1  0
 63288  1  0
 64289  1  0
 65290  1  0
 65291  1  0
 65292  1  0
 66293  1  0
 66294  1  0
 66295  1  0
 69296  1  0
 70297  1  6
 71298  1  0
 71299  1  0
 72300  1  0
 72301  1  0
 72302  1  0
 75303  1  0
 76304  1  6
 77305  1  0
 77306  1  0
 77307  1  0
 80308  1  0
 81309  1  6
 82310  1  0
 82311  1  0
 83312  1  0
 83313  1  0
 89314  1  0
 90315  1  6
 91316  1  0
 91317  1  0
 91318  1  0
 94319  1  0
 95320  1  6
 96321  1  0
 96322  1  0
 98323  1  0
 99324  1  0
100325  1  0
104326  1  0
106327  1  0
106328  1  0
107329  1  0
107330  1  0
108331  1  0
108332  1  0
109333  1  0
110334  1  0
110335  1  0
110336  1  0
113337  1  0
114338  1  1
115339  1  0
115340  1  0
116341  1  0
117342  1  0
117343  1  0
117344  1  0
118345  1  0
118346  1  0
118347  1  0
121348  1  0
122349  1  6
123350  1  0
123351  1  0
124352  1  0
127353  1  0
128354  1  1
129355  1  1
130356  1  0
131357  1  0
131358  1  0
131359  1  0
134360  1  0
135361  1  6
136362  1  0
136363  1  0
137364  1  0
138365  1  0
138366  1  0
138367  1  0
139368  1  0
139369  1  0
139370  1  0
142371  1  0
143372  1  1
144373  1  0
144374  1  0
145375  1  0
146376  1  0
146377  1  0
146378  1  0
147379  1  0
147380  1  0
147381  1  0
150382  1  0
151383  1  6
152384  1  0
152385  1  0
153386  1  0
153387  1  0
159388  1  0
160389  1  1
161390  1  0
161391  1  0
163392  1  0
163393  1  0
167394  1  0
168395  1  6
169396  1  0
169397  1  0
169398  1  0
172399  1  0
173400  1  1
174401  1  1
175402  1  0
175403  1  0
175404  1  0
176405  1  0
176406  1  0
177407  1  0
177408  1  0
177409  1  0
180410  1  0
181411  1  6
182412  1  0
182413  1  0
183414  1  0
183415  1  0
185416  1  0
185417  1  0
189418  1  0
190419  1  1
191420  1  0
191421  1  0
197422  1  0
198423  1  6
199424  1  6
200425  1  0
201426  1  0
201427  1  0
201428  1  0
204429  1  0
205430  1  1
206431  1  0
206432  1  0
207433  1  0
207434  1  0
207435  1  0
210436  1  0
211437  1  6
212438  1  0
212439  1  0
213440  1  0
213441  1  0
214442  1  0
214443  1  0
215444  1  0
217445  1  0
217446  1  0
218447  1  0
218448  1  0
221449  1  0
222450  1  1
223451  1  0
223452  1  0
224453  1  0
224454  1  0
230455  1  0
231456  1  6
232457  1  0
232458  1  0
233459  1  0
233460  1  0
235461  1  0
235462  1  0
M  CHG  7  46  -1  86  -1 156  -1 194  -1 217   1 227  -1 239  -1
M  END
