
     RDKit          2D

312323  0  0  0  0  0  0  0  0999 V2000
  -26.6720   -3.6682    0.0000 C   0  0  0  0  0  0  0  0  0  0  0  0
  -27.5196   -4.9058    0.0000 N   0  0  0  0  0  0  0  0  0  0  0  0
  -29.0152   -4.7905    0.0000 C   0  0  0  0  0  0  0  0  0  0  0  0
  -29.6631   -3.4376    0.0000 C   0  0  0  0  0  0  0  0  0  0  0  0
  -31.1587   -3.3224    0.0000 C   0  0  0  0  0  0  0  0  0  0  0  0
  -32.0063   -4.5599    0.0000 C   0  0  0  0  0  0  0  0  0  0  0  0
  -31.3584   -5.9128    0.0000 C   0  0  0  0  0  0  0  0  0  0  0  0
  -29.8628   -6.0280    0.0000 C   0  0  0  0  0  0  0  0  0  0  0  0
  -32.4448   -6.9470    0.0000 C   0  0  0  0  0  0  0  0  0  0  0  0
  -33.7641   -6.2334    0.0000 O   0  0  0  0  0  0  0  0  0  0  0  0
  -33.4932   -4.7581    0.0000 C   0  0  0  0  0  0  0  0  0  0  0  0
  -34.5274   -3.6717    0.0000 O   0  0  0  0  0  0  0  0  0  0  0  0
  -33.6333   -7.8621    0.0000 C   0  0  0  0  0  0  0  0  0  0  0  0
  -33.4351   -9.3489    0.0000 C   0  0  0  0  0  0  0  0  0  0  0  0
  -34.6237  -10.2640    0.0000 C   0  0  0  0  0  0  0  0  0  0  0  0
  -36.0104   -9.6922    0.0000 C   0  0  0  0  0  0  0  0  0  0  0  0
  -36.2086   -8.2054    0.0000 C   0  0  0  0  0  0  0  0  0  0  0  0
  -35.0201   -7.2903    0.0000 C   0  0  0  0  0  0  0  0  0  0  0  0
  -37.1990  -10.6073    0.0000 O   0  0  0  0  0  0  0  0  0  0  0  0
  -32.0484   -9.9207    0.0000 O   0  0  0  0  0  0  0  0  0  0  0  0
  -30.8598   -9.0057    0.0000 C   0  0  0  0  0  0  0  0  0  0  0  0
  -31.0580   -7.5188    0.0000 C   0  0  0  0  0  0  0  0  0  0  0  0
  -29.7770   -7.2976    0.0000 C   0  0  0  0  0  0  0  0  0  0  0  0
  -29.0374   -7.6026    0.0000 C   0  0  0  0  0  0  0  0  0  0  0  0
  -28.9317   -8.3956    0.0000 C   0  0  0  0  0  0  0  0  0  0  0  0
  -29.5656   -8.8836    0.0000 C   0  0  0  0  0  0  0  0  0  0  0  0
  -26.8978   -9.2342    0.0000 O   0  0  0  0  0  0  0  0  0  0  0  0
  -27.3199   -2.3154    0.0000 S   0  0  0  0  0  0  0  0  0  0  0  0
  -25.1764   -3.7835    0.0000 N   0  0  0  0  0  0  0  0  0  0  0  0
  -24.3288   -2.5459    0.0000 C   0  0  0  0  0  0  0  0  0  0  0  0
  -22.8333   -2.6612    0.0000 C   0  0  0  0  0  0  0  0  0  0  0  0
  -21.9856   -1.4237    0.0000 C   0  0  0  0  0  0  0  0  0  0  0  0
  -22.6336   -0.0708    0.0000 O   0  0  0  0  0  0  0  0  0  0  0  0
  -20.4901   -1.5389    0.0000 N   0  0  0  0  0  0  0  0  0  0  0  0
  -19.6425   -0.3014    0.0000 C   0  0  0  0  0  0  0  0  0  0  0  0
  -19.2692    1.1514    0.0000 C   0  0  0  0  0  0  0  0  0  0  0  0
  -18.1469   -0.4167    0.0000 C   0  0  0  0  0  0  0  0  0  0  0  0
  -17.6687   -1.8384    0.0000 O   0  0  0  0  0  0  0  0  0  0  0  0
  -17.2993    0.8209    0.0000 N   0  0  0  0  0  0  0  0  0  0  0  0
  -15.8037    0.7056    0.0000 C   0  0  0  0  0  0  0  0  0  0  0  0
  -14.9006   -0.4920    0.0000 C   0  0  0  0  0  0  0  0  0  0  0  0
  -13.6845   -1.3702    0.0000 C   0  0  0  0  0  0  0  0  0  0  0  0
  -12.2636   -1.8510    0.0000 C   0  0  0  0  0  0  0  0  0  0  0  0
  -10.7642   -1.8916    0.0000 C   0  0  0  0  0  0  0  0  0  0  0  0
  -16.6789   -0.5126    0.0000 C   0  0  0  0  0  0  0  0  0  0  0  0
  -16.3137    2.1162    0.0000 C   0  0  0  0  0  0  0  0  0  0  0  0
  -17.8121    2.1868    0.0000 O   0  0  0  0  0  0  0  0  0  0  0  0
  -16.3853    3.6145    0.0000 N   0  0  0  0  0  0  0  0  0  0  0  0
  -16.0121    5.0674    0.0000 C   0  0  0  0  0  0  0  0  0  0  0  0
  -16.8544    6.3085    0.0000 C   0  0  0  0  0  0  0  0  0  0  0  0
  -18.3505    6.1996    0.0000 O   0  0  0  0  0  0  0  0  0  0  0  0
  -15.2272    6.3456    0.0000 C   0  0  0  0  0  0  0  0  0  0  0  0
  -16.3742    7.3123    0.0000 O   0  0  0  0  0  0  0  0  0  0  0  0
  -14.1004    7.3358    0.0000 N   0  0  0  0  0  0  0  0  0  0  0  0
  -12.7319    7.9498    0.0000 C   0  0  0  0  0  0  0  0  0  0  0  0
  -12.2867    9.3822    0.0000 C   0  0  0  0  0  0  0  0  0  0  0  0
  -13.3046   10.4839    0.0000 O   0  0  0  0  0  0  0  0  0  0  0  0
  -11.2431    8.1331    0.0000 C   0  0  0  0  0  0  0  0  0  0  0  0
  -11.2025    9.6326    0.0000 O   0  0  0  0  0  0  0  0  0  0  0  0
   -9.7664    7.8695    0.0000 N   0  0  0  0  0  0  0  0  0  0  0  0
   -8.4331    7.1823    0.0000 C   0  0  0  0  0  0  0  0  0  0  0  0
   -7.0356    7.7274    0.0000 C   0  0  0  0  0  0  0  0  0  0  0  0
   -6.8089    9.2102    0.0000 C   0  0  0  0  0  0  0  0  0  0  0  0
   -5.4114    9.7552    0.0000 C   0  0  0  0  0  0  0  0  0  0  0  0
   -5.1847   11.2380    0.0000 C   0  0  0  0  0  0  0  0  0  0  0  0
   -6.3555   12.1757    0.0000 C   0  0  0  0  0  0  0  0  0  0  0  0
   -7.7529   11.6306    0.0000 C   0  0  0  0  0  0  0  0  0  0  0  0
   -7.9797   10.1479    0.0000 C   0  0  0  0  0  0  0  0  0  0  0  0
   -7.3615    6.1327    0.0000 C   0  0  0  0  0  0  0  0  0  0  0  0
   -6.1639    7.0359    0.0000 O   0  0  0  0  0  0  0  0  0  0  0  0
   -6.6470    4.8139    0.0000 N   0  0  0  0  0  0  0  0  0  0  0  0
   -6.3529    3.3430    0.0000 C   0  0  0  0  0  0  0  0  0  0  0  0
   -6.5054    1.8507    0.0000 C   0  0  0  0  0  0  0  0  0  0  0  0
   -7.0910    0.4698    0.0000 C   0  0  0  0  0  0  0  0  0  0  0  0
   -8.0576   -0.6772    0.0000 C   0  0  0  0  0  0  0  0  0  0  0  0
   -9.3194   -1.4884    0.0000 C   0  0  0  0  0  0  0  0  0  0  0  0
   -5.1331    4.2160    0.0000 C   0  0  0  0  0  0  0  0  0  0  0  0
   -5.0554    2.5902    0.0000 C   0  0  0  0  0  0  0  0  0  0  0  0
   -4.6956    1.1340    0.0000 O   0  0  0  0  0  0  0  0  0  0  0  0
   -3.7548    3.3374    0.0000 N   0  0  0  0  0  0  0  0  0  0  0  0
   -2.4574    2.5847    0.0000 C   0  0  0  0  0  0  0  0  0  0  0  0
   -1.4956    1.4335    0.0000 C   0  0  0  0  0  0  0  0  0  0  0  0
   -2.0117    0.0251    0.0000 C   0  0  0  0  0  0  0  0  0  0  0  0
   -1.0499   -1.1260    0.0000 O   0  0  0  0  0  0  0  0  0  0  0  0
   -3.4894   -0.2322    0.0000 O   0  0  0  0  0  0  0  0  0  0  0  0
   -1.1567    3.3319    0.0000 C   0  0  0  0  0  0  0  0  0  0  0  0
   -1.1535    4.8319    0.0000 O   0  0  0  0  0  0  0  0  0  0  0  0
    0.1407    2.5791    0.0000 N   0  0  0  0  0  0  0  0  0  0  0  0
    1.4413    3.3264    0.0000 C   0  0  0  0  0  0  0  0  0  0  0  0
    2.4080    4.4734    0.0000 C   0  0  0  0  0  0  0  0  0  0  0  0
    3.8846    4.2098    0.0000 C   0  0  0  0  0  0  0  0  0  0  0  0
    4.3946    2.7991    0.0000 C   0  0  0  0  0  0  0  0  0  0  0  0
    5.8713    2.5355    0.0000 C   0  0  0  0  0  0  0  0  0  0  0  0
    6.8379    3.6825    0.0000 C   0  0  0  0  0  0  0  0  0  0  0  0
    6.3279    5.0932    0.0000 C   0  0  0  0  0  0  0  0  0  0  0  0
    4.8512    5.3568    0.0000 C   0  0  0  0  0  0  0  0  0  0  0  0
    2.7388    2.5736    0.0000 C   0  0  0  0  0  0  0  0  0  0  0  0
    2.3727    1.1190    0.0000 O   0  0  0  0  0  0  0  0  0  0  0  0
    4.0394    3.3208    0.0000 N   0  0  0  0  0  0  0  0  0  0  0  0
    5.3368    2.5681    0.0000 C   0  0  0  0  0  0  0  0  0  0  0  0
    6.2986    1.4169    0.0000 C   0  0  0  0  0  0  0  0  0  0  0  0
    5.7825    0.0085    0.0000 C   0  0  0  0  0  0  0  0  0  0  0  0
    4.3048   -0.2488    0.0000 C   0  0  0  0  0  0  0  0  0  0  0  0
    3.7888   -1.6573    0.0000 C   0  0  0  0  0  0  0  0  0  0  0  0
    4.7505   -2.8084    0.0000 C   0  0  0  0  0  0  0  0  0  0  0  0
    6.2283   -2.5511    0.0000 C   0  0  0  0  0  0  0  0  0  0  0  0
    6.7443   -1.1426    0.0000 C   0  0  0  0  0  0  0  0  0  0  0  0
    6.6375    3.3153    0.0000 C   0  0  0  0  0  0  0  0  0  0  0  0
    7.0035    4.7699    0.0000 O   0  0  0  0  0  0  0  0  0  0  0  0
    7.9349    2.5625    0.0000 N   0  0  0  0  0  0  0  0  0  0  0  0
    9.2356    3.3098    0.0000 C   0  0  0  0  0  0  0  0  0  0  0  0
   10.2022    4.4568    0.0000 C   0  0  0  0  0  0  0  0  0  0  0  0
   11.6788    4.1932    0.0000 C   0  0  0  0  0  0  0  0  0  0  0  0
   12.7601    5.2328    0.0000 C   0  0  0  0  0  0  0  0  0  0  0  0
   14.0830    4.5258    0.0000 N   0  0  0  0  0  0  0  0  0  0  0  0
   13.8194    3.0492    0.0000 C   0  0  0  0  0  0  0  0  0  0  0  0
   12.3335    2.8436    0.0000 N   0  0  0  0  0  0  0  0  0  0  0  0
   10.5330    2.5570    0.0000 C   0  0  0  0  0  0  0  0  0  0  0  0
   10.5298    1.0570    0.0000 O   0  0  0  0  0  0  0  0  0  0  0  0
   11.8336    3.3042    0.0000 N   0  0  0  0  0  0  0  0  0  0  0  0
   13.1311    2.5515    0.0000 C   0  0  0  0  0  0  0  0  0  0  0  0
   14.0928    1.4003    0.0000 C   0  0  0  0  0  0  0  0  0  0  0  0
   15.2888    0.4950    0.0000 O   0  0  0  0  0  0  0  0  0  0  0  0
   13.5768   -0.0081    0.0000 C   0  0  0  0  0  0  0  0  0  0  0  0
   14.4317    3.2987    0.0000 C   0  0  0  0  0  0  0  0  0  0  0  0
   14.7978    4.7533    0.0000 O   0  0  0  0  0  0  0  0  0  0  0  0
   15.7291    2.5459    0.0000 N   0  0  0  0  0  0  0  0  0  0  0  0
   17.0298    3.2932    0.0000 C   0  0  0  0  0  0  0  0  0  0  0  0
   17.9964    4.4402    0.0000 C   0  0  0  0  0  0  0  0  0  0  0  0
   19.4929    4.5417    0.0000 C   0  0  0  0  0  0  0  0  0  0  0  0
   18.3272    2.5404    0.0000 C   0  0  0  0  0  0  0  0  0  0  0  0
   18.3240    1.0404    0.0000 O   0  0  0  0  0  0  0  0  0  0  0  0
   19.6278    3.2876    0.0000 N   0  0  0  0  0  0  0  0  0  0  0  0
   19.7878    4.7791    0.0000 C   0  0  0  0  0  0  0  0  0  0  0  0
   21.2557    5.0878    0.0000 C   0  0  0  0  0  0  0  0  0  0  0  0
   22.0029    3.7872    0.0000 C   0  0  0  0  0  0  0  0  0  0  0  0
   20.9968    2.6746    0.0000 C   0  0  0  0  0  0  0  0  0  0  0  0
   22.2085    1.7904    0.0000 C   0  0  0  0  0  0  0  0  0  0  0  0
   23.6439    2.2258    0.0000 O   0  0  0  0  0  0  0  0  0  0  0  0
   22.0485    0.2989    0.0000 N   0  0  0  0  0  0  0  0  0  0  0  0
   23.2602   -0.5854    0.0000 C   0  0  0  0  0  0  0  0  0  0  0  0
   24.7012   -1.0019    0.0000 C   0  0  0  0  0  0  0  0  0  0  0  0
   25.0610   -2.4581    0.0000 C   0  0  0  0  0  0  0  0  0  0  0  0
   23.9797   -3.4978    0.0000 C   0  0  0  0  0  0  0  0  0  0  0  0
   24.3395   -4.9540    0.0000 C   0  0  0  0  0  0  0  0  0  0  0  0
   25.7805   -5.3705    0.0000 C   0  0  0  0  0  0  0  0  0  0  0  0
   26.1403   -6.8267    0.0000 O   0  0  0  0  0  0  0  0  0  0  0  0
   26.8618   -4.3308    0.0000 C   0  0  0  0  0  0  0  0  0  0  0  0
   26.5020   -2.8746    0.0000 C   0  0  0  0  0  0  0  0  0  0  0  0
   23.1002   -2.0768    0.0000 C   0  0  0  0  0  0  0  0  0  0  0  0
   21.6648   -2.5123    0.0000 O   0  0  0  0  0  0  0  0  0  0  0  0
   24.3118   -2.9611    0.0000 N   0  0  0  0  0  0  0  0  0  0  0  0
   24.1519   -4.4525    0.0000 C   0  0  0  0  0  0  0  0  0  0  0  0
   23.4914   -5.7993    0.0000 C   0  0  0  0  0  0  0  0  0  0  0  0
   21.9949   -5.9007    0.0000 C   0  0  0  0  0  0  0  0  0  0  0  0
   21.3345   -7.2475    0.0000 C   0  0  0  0  0  0  0  0  0  0  0  0
   19.8379   -7.3490    0.0000 C   0  0  0  0  0  0  0  0  0  0  0  0
   25.3635   -5.3368    0.0000 C   0  0  0  0  0  0  0  0  0  0  0  0
   26.8413   -5.0795    0.0000 O   0  0  0  0  0  0  0  0  0  0  0  0
   25.2036   -6.8282    0.0000 N   0  0  0  0  0  0  0  0  0  0  0  0
   26.4152   -7.7125    0.0000 C   0  0  0  0  0  0  0  0  0  0  0  0
   27.8562   -8.1290    0.0000 C   0  0  0  0  0  0  0  0  0  0  0  0
   28.2160   -9.5852    0.0000 C   0  0  0  0  0  0  0  0  0  0  0  0
   29.6570  -10.0017    0.0000 C   0  0  0  0  0  0  0  0  0  0  0  0
   28.0560  -11.0767    0.0000 C   0  0  0  0  0  0  0  0  0  0  0  0
   26.2552   -9.2039    0.0000 C   0  0  0  0  0  0  0  0  0  0  0  0
   27.3500  -10.2293    0.0000 O   0  0  0  0  0  0  0  0  0  0  0  0
   24.8836   -9.8111    0.0000 O   0  0  0  0  0  0  0  0  0  0  0  0
  -26.7116   -6.1695    0.0000 H   0  0  0  0  0  0  0  0  0  0  0  0
  -28.8155   -2.2001    0.0000 H   0  0  0  0  0  0  0  0  0  0  0  0
  -31.8066   -1.9695    0.0000 H   0  0  0  0  0  0  0  0  0  0  0  0
  -28.9068   -7.1839    0.0000 H   0  0  0  0  0  0  0  0  0  0  0  0
  -34.4255  -11.7509    0.0000 H   0  0  0  0  0  0  0  0  0  0  0  0
  -37.5954   -7.6336    0.0000 H   0  0  0  0  0  0  0  0  0  0  0  0
  -35.2182   -5.8035    0.0000 H   0  0  0  0  0  0  0  0  0  0  0  0
  -38.5857  -10.0355    0.0000 H   0  0  0  0  0  0  0  0  0  0  0  0
  -30.0676   -5.1169    0.0000 H   0  0  0  0  0  0  0  0  0  0  0  0
  -27.1915   -6.4122    0.0000 H   0  0  0  0  0  0  0  0  0  0  0  0
  -29.2749  -11.0643    0.0000 H   0  0  0  0  0  0  0  0  0  0  0  0
  -26.6996  -10.7211    0.0000 H   0  0  0  0  0  0  0  0  0  0  0  0
  -24.5285   -5.1363    0.0000 H   0  0  0  0  0  0  0  0  0  0  0  0
  -23.9556   -1.0931    0.0000 H   0  0  0  0  0  0  0  0  0  0  0  0
  -25.6948   -1.9261    0.0000 H   0  0  0  0  0  0  0  0  0  0  0  0
  -21.4673   -3.2810    0.0000 H   0  0  0  0  0  0  0  0  0  0  0  0
  -23.2065   -4.1140    0.0000 H   0  0  0  0  0  0  0  0  0  0  0  0
  -19.8421   -2.8918    0.0000 H   0  0  0  0  0  0  0  0  0  0  0  0
  -21.0084    0.3185    0.0000 H   0  0  0  0  0  0  0  0  0  0  0  0
  -18.1829    2.1858    0.0000 H   0  0  0  0  0  0  0  0  0  0  0  0
  -19.4154    2.6443    0.0000 H   0  0  0  0  0  0  0  0  0  0  0  0
  -20.7648    1.2667    0.0000 H   0  0  0  0  0  0  0  0  0  0  0  0
  -17.9472    2.1737    0.0000 H   0  0  0  0  0  0  0  0  0  0  0  0
  -16.3124   -0.9986    0.0000 H   0  0  0  0  0  0  0  0  0  0  0  0
  -15.2009   -1.9616    0.0000 H   0  0  0  0  0  0  0  0  0  0  0  0
  -14.7657   -2.4100    0.0000 H   0  0  0  0  0  0  0  0  0  0  0  0
  -13.7214   -2.8698    0.0000 H   0  0  0  0  0  0  0  0  0  0  0  0
  -13.1448   -3.0648    0.0000 H   0  0  0  0  0  0  0  0  0  0  0  0
  -11.6839   -3.2344    0.0000 H   0  0  0  0  0  0  0  0  0  0  0  0
  -10.5808   -3.3803    0.0000 H   0  0  0  0  0  0  0  0  0  0  0  0
  -16.1060   -2.0769    0.0000 H   0  0  0  0  0  0  0  0  0  0  0  0
  -17.5108   -1.7107    0.0000 H   0  0  0  0  0  0  0  0  0  0  0  0
  -17.8678    0.0568    0.0000 H   0  0  0  0  0  0  0  0  0  0  0  0
  -17.8775    3.7671    0.0000 H   0  0  0  0  0  0  0  0  0  0  0  0
  -17.4898    4.8100    0.0000 H   0  0  0  0  0  0  0  0  0  0  0  0
  -17.2215    7.7629    0.0000 H   0  0  0  0  0  0  0  0  0  0  0  0
  -15.6751    7.2354    0.0000 H   0  0  0  0  0  0  0  0  0  0  0  0
  -19.1928    7.4408    0.0000 H   0  0  0  0  0  0  0  0  0  0  0  0
  -14.9116    8.5975    0.0000 H   0  0  0  0  0  0  0  0  0  0  0  0
  -13.8544    8.9447    0.0000 H   0  0  0  0  0  0  0  0  0  0  0  0
  -11.3784   10.5760    0.0000 H   0  0  0  0  0  0  0  0  0  0  0  0
  -10.8267    9.0381    0.0000 H   0  0  0  0  0  0  0  0  0  0  0  0
  -12.8594   11.9164    0.0000 H   0  0  0  0  0  0  0  0  0  0  0  0
   -9.4625    9.3384    0.0000 H   0  0  0  0  0  0  0  0  0  0  0  0
   -8.3551    8.6803    0.0000 H   0  0  0  0  0  0  0  0  0  0  0  0
   -5.5360    7.7616    0.0000 H   0  0  0  0  0  0  0  0  0  0  0  0
   -6.3944    6.3714    0.0000 H   0  0  0  0  0  0  0  0  0  0  0  0
   -4.2407    8.8175    0.0000 H   0  0  0  0  0  0  0  0  0  0  0  0
   -3.7872   11.7830    0.0000 H   0  0  0  0  0  0  0  0  0  0  0  0
   -6.1287   13.6585    0.0000 H   0  0  0  0  0  0  0  0  0  0  0  0
   -8.9237   12.5684    0.0000 H   0  0  0  0  0  0  0  0  0  0  0  0
   -9.4331    9.7773    0.0000 H   0  0  0  0  0  0  0  0  0  0  0  0
   -5.2363    5.3239    0.0000 H   0  0  0  0  0  0  0  0  0  0  0  0
   -5.4875    0.7490    0.0000 H   0  0  0  0  0  0  0  0  0  0  0  0
   -5.0099    1.9670    0.0000 H   0  0  0  0  0  0  0  0  0  0  0  0
   -6.2830   -0.7940    0.0000 H   0  0  0  0  0  0  0  0  0  0  0  0
   -5.6277    0.1401    0.0000 H   0  0  0  0  0  0  0  0  0  0  0  0
   -7.8372   -2.1610    0.0000 H   0  0  0  0  0  0  0  0  0  0  0  0
   -6.6752   -1.2594    0.0000 H   0  0  0  0  0  0  0  0  0  0  0  0
   -8.7054   -2.8569    0.0000 H   0  0  0  0  0  0  0  0  0  0  0  0
   -3.6578    3.9451    0.0000 H   0  0  0  0  0  0  0  0  0  0  0  0
   -4.4427    5.5476    0.0000 H   0  0  0  0  0  0  0  0  0  0  0  0
   -5.9188    5.4937    0.0000 H   0  0  0  0  0  0  0  0  0  0  0  0
   -3.5688    4.8259    0.0000 H   0  0  0  0  0  0  0  0  0  0  0  0
   -3.4240    1.4377    0.0000 H   0  0  0  0  0  0  0  0  0  0  0  0
   -0.2996    0.5282    0.0000 H   0  0  0  0  0  0  0  0  0  0  0  0
   -0.2802    2.3126    0.0000 H   0  0  0  0  0  0  0  0  0  0  0  0
    0.3204    1.0899    0.0000 H   0  0  0  0  0  0  0  0  0  0  0  0
    0.4796    4.4775    0.0000 H   0  0  0  0  0  0  0  0  0  0  0  0
    2.9240    5.8818    0.0000 H   0  0  0  0  0  0  0  0  0  0  0  0
    1.1105    5.2261    0.0000 H   0  0  0  0  0  0  0  0  0  0  0  0
    3.4280    1.6521    0.0000 H   0  0  0  0  0  0  0  0  0  0  0  0
    6.7075    1.2902    0.0000 H   0  0  0  0  0  0  0  0  0  0  0  0
    8.3146    3.4189    0.0000 H   0  0  0  0  0  0  0  0  0  0  0  0
    7.2945    6.2402    0.0000 H   0  0  0  0  0  0  0  0  0  0  0  0
    4.3412    6.7674    0.0000 H   0  0  0  0  0  0  0  0  0  0  0  0
    4.4055    4.7755    0.0000 H   0  0  0  0  0  0  0  0  0  0  0  0
    4.3702    1.4211    0.0000 H   0  0  0  0  0  0  0  0  0  0  0  0
    7.4946    0.5116    0.0000 H   0  0  0  0  0  0  0  0  0  0  0  0
    7.5140    2.2960    0.0000 H   0  0  0  0  0  0  0  0  0  0  0  0
    3.0931    0.6354    0.0000 H   0  0  0  0  0  0  0  0  0  0  0  0
    2.3110   -1.9146    0.0000 H   0  0  0  0  0  0  0  0  0  0  0  0
    4.2345   -4.2168    0.0000 H   0  0  0  0  0  0  0  0  0  0  0  0
    7.1900   -3.7022    0.0000 H   0  0  0  0  0  0  0  0  0  0  0  0
    8.2220   -0.8853    0.0000 H   0  0  0  0  0  0  0  0  0  0  0  0
    8.1146    1.0733    0.0000 H   0  0  0  0  0  0  0  0  0  0  0  0
    8.2738    4.4609    0.0000 H   0  0  0  0  0  0  0  0  0  0  0  0
   10.7182    5.8652    0.0000 H   0  0  0  0  0  0  0  0  0  0  0  0
    8.9047    5.2095    0.0000 H   0  0  0  0  0  0  0  0  0  0  0  0
   12.5545    6.7187    0.0000 H   0  0  0  0  0  0  0  0  0  0  0  0
   15.4326    5.1805    0.0000 H   0  0  0  0  0  0  0  0  0  0  0  0
   14.9831    2.1027    0.0000 H   0  0  0  0  0  0  0  0  0  0  0  0
   12.1997    4.7589    0.0000 H   0  0  0  0  0  0  0  0  0  0  0  0
   12.0318    1.5308    0.0000 H   0  0  0  0  0  0  0  0  0  0  0  0
   15.4063    2.1247    0.0000 H   0  0  0  0  0  0  0  0  0  0  0  0
   15.5699   -0.8416    0.0000 H   0  0  0  0  0  0  0  0  0  0  0  0
   14.3910   -1.2679    0.0000 H   0  0  0  0  0  0  0  0  0  0  0  0
   12.6101   -1.1551    0.0000 H   0  0  0  0  0  0  0  0  0  0  0  0
   12.1972    0.5809    0.0000 H   0  0  0  0  0  0  0  0  0  0  0  0
   15.9088    1.0567    0.0000 H   0  0  0  0  0  0  0  0  0  0  0  0
   16.0680    4.4443    0.0000 H   0  0  0  0  0  0  0  0  0  0  0  0
   18.5124    5.8486    0.0000 H   0  0  0  0  0  0  0  0  0  0  0  0
   16.6990    5.1929    0.0000 H   0  0  0  0  0  0  0  0  0  0  0  0
   20.4397    5.3236    0.0000 H   0  0  0  0  0  0  0  0  0  0  0  0
   21.0030    3.7661    0.0000 H   0  0  0  0  0  0  0  0  0  0  0  0
   19.8526    2.7241    0.0000 H   0  0  0  0  0  0  0  0  0  0  0  0
   18.3332    5.1451    0.0000 H   0  0  0  0  0  0  0  0  0  0  0  0
   19.6342    6.2712    0.0000 H   0  0  0  0  0  0  0  0  0  0  0  0
   20.7952    6.5154    0.0000 H   0  0  0  0  0  0  0  0  0  0  0  0
   22.6273    5.6950    0.0000 H   0  0  0  0  0  0  0  0  0  0  0  0
   23.2183    4.6663    0.0000 H   0  0  0  0  0  0  0  0  0  0  0  0
   23.1329    2.8007    0.0000 H   0  0  0  0  0  0  0  0  0  0  0  0
   20.2441    1.3772    0.0000 H   0  0  0  0  0  0  0  0  0  0  0  0
   20.6769   -0.3083    0.0000 H   0  0  0  0  0  0  0  0  0  0  0  0
   23.9206    0.7614    0.0000 H   0  0  0  0  0  0  0  0  0  0  0  0
   26.1977   -0.9004    0.0000 H   0  0  0  0  0  0  0  0  0  0  0  0
   24.8611    0.4896    0.0000 H   0  0  0  0  0  0  0  0  0  0  0  0
   22.4987   -3.2600    0.0000 H   0  0  0  0  0  0  0  0  0  0  0  0
   23.5420   -6.2244    0.0000 H   0  0  0  0  0  0  0  0  0  0  0  0
   27.6213   -7.0645    0.0000 H   0  0  0  0  0  0  0  0  0  0  0  0
   28.3028   -4.7474    0.0000 H   0  0  0  0  0  0  0  0  0  0  0  0
   27.5832   -1.8349    0.0000 H   0  0  0  0  0  0  0  0  0  0  0  0
   25.7896   -2.7038    0.0000 H   0  0  0  0  0  0  0  0  0  0  0  0
   22.7724   -3.8634    0.0000 H   0  0  0  0  0  0  0  0  0  0  0  0
   23.3315   -7.2907    0.0000 H   0  0  0  0  0  0  0  0  0  0  0  0
   24.7888   -6.5521    0.0000 H   0  0  0  0  0  0  0  0  0  0  0  0
   20.6154   -5.3117    0.0000 H   0  0  0  0  0  0  0  0  0  0  0  0
   21.9719   -4.4009    0.0000 H   0  0  0  0  0  0  0  0  0  0  0  0
   21.1745   -8.7390    0.0000 H   0  0  0  0  0  0  0  0  0  0  0  0
   22.7139   -7.8366    0.0000 H   0  0  0  0  0  0  0  0  0  0  0  0
   19.1775   -8.6958    0.0000 H   0  0  0  0  0  0  0  0  0  0  0  0
   18.3969   -6.9325    0.0000 H   0  0  0  0  0  0  0  0  0  0  0  0
   19.8149   -5.8492    0.0000 H   0  0  0  0  0  0  0  0  0  0  0  0
   23.9162   -7.5981    0.0000 H   0  0  0  0  0  0  0  0  0  0  0  0
   27.0756   -6.3657    0.0000 H   0  0  0  0  0  0  0  0  0  0  0  0
   29.3292   -7.8459    0.0000 H   0  0  0  0  0  0  0  0  0  0  0  0
   28.1968   -6.6682    0.0000 H   0  0  0  0  0  0  0  0  0  0  0  0
   26.8552  -10.2164    0.0000 H   0  0  0  0  0  0  0  0  0  0  0  0
   30.1916  -11.4032    0.0000 H   0  0  0  0  0  0  0  0  0  0  0  0
   31.1536   -9.9003    0.0000 H   0  0  0  0  0  0  0  0  0  0  0  0
   29.9976   -8.5409    0.0000 H   0  0  0  0  0  0  0  0  0  0  0  0
   29.1508  -12.1020    0.0000 H   0  0  0  0  0  0  0  0  0  0  0  0
   27.3956  -12.4234    0.0000 H   0  0  0  0  0  0  0  0  0  0  0  0
   26.6150  -10.6601    0.0000 H   0  0  0  0  0  0  0  0  0  0  0  0
  1  2  1  0
  2  3  1  0
  3  4  2  0
  4  5  1  0
  5  6  2  0
  6  7  1  0
  7  8  2  0
  7  9  1  0
  9 10  1  0
 10 11  1  0
 11 12  2  0
  9 13  1  0
 13 14  1  0
 14 15  2  0
 15 16  1  0
 16 17  2  0
 17 18  1  0
 16 19  1  0
 14 20  1  0
 20 21  1  0
 21 22  2  0
 22 23  1  0
 23 24  2  0
 24 25  1  0
 25 26  2  0
 25 27  1  0
  1 28  2  0
  1 29  1  0
 29 30  1  0
 30 31  1  0
 31 32  1  0
 32 33  2  0
 32 34  1  0
 34 35  1  0
 35 36  1  0
 35 37  1  0
 37 38  2  0
 37 39  1  0
 40 39  1  6
 40 41  1  0
 41 42  1  0
 42 43  1  0
 43 44  1  0
 40 45  1  0
 40 46  1  0
 46 47  2  0
 46 48  1  0
 48 49  1  0
 49 50  1  0
 50 51  1  0
 49 52  1  0
 52 53  2  0
 52 54  1  0
 54 55  1  0
 55 56  1  0
 56 57  1  0
 55 58  1  0
 58 59  2  0
 58 60  1  0
 60 61  1  0
 61 62  1  0
 62 63  1  0
 63 64  2  0
 64 65  1  0
 65 66  2  0
 66 67  1  0
 67 68  2  0
 61 69  1  0
 69 70  2  0
 69 71  1  0
 71 72  1  0
 72 73  1  0
 73 74  1  0
 74 75  1  0
 75 76  1  0
 72 77  1  0
 72 78  1  6
 78 79  2  0
 78 80  1  0
 80 81  1  0
 81 82  1  0
 82 83  1  0
 83 84  2  0
 83 85  1  0
 81 86  1  0
 86 87  2  0
 86 88  1  0
 88 89  1  0
 89 90  1  0
 90 91  1  0
 91 92  2  0
 92 93  1  0
 93 94  2  0
 94 95  1  0
 95 96  2  0
 89 97  1  0
 97 98  2  0
 97 99  1  0
 99100  1  0
100101  1  0
101102  1  0
102103  2  0
103104  1  0
104105  2  0
105106  1  0
106107  2  0
100108  1  0
108109  2  0
108110  1  0
110111  1  0
111112  1  0
112113  1  0
113114  2  0
114115  1  0
115116  1  0
116117  2  0
111118  1  0
118119  2  0
118120  1  0
120121  1  0
121122  1  0
122123  1  0
122124  1  0
121125  1  0
125126  2  0
125127  1  0
127128  1  0
128129  1  0
129130  1  0
128131  1  0
131132  2  0
131133  1  0
133134  1  0
134135  1  0
135136  1  0
136137  1  0
137138  1  0
138139  2  0
138140  1  0
140141  1  0
141142  1  0
142143  1  0
143144  2  0
144145  1  0
145146  2  0
146147  1  0
146148  1  0
148149  2  0
141150  1  0
150151  2  0
150152  1  0
152153  1  0
153154  1  0
154155  1  0
155156  1  0
156157  1  0
153158  1  0
158159  2  0
158160  1  0
160161  1  0
161162  1  0
162163  1  0
163164  1  0
163165  1  0
161166  1  0
166167  2  0
166168  1  0
  8  3  1  0
 68 63  1  0
 96 91  1  0
107102  1  0
117113  1  0
137133  1  0
149143  1  0
 11  6  1  0
 18 13  2  0
 44 76  2  0
 22  9  1  0
 26 21  1  0
  2169  1  0
  4170  1  0
  5171  1  0
  8172  1  0
 15173  1  0
 17174  1  0
 18175  1  0
 19176  1  0
 23177  1  0
 24178  1  0
 26179  1  0
 27180  1  0
 29181  1  0
 30182  1  0
 30183  1  0
 31184  1  0
 31185  1  0
 34186  1  0
 35187  1  1
 36188  1  0
 36189  1  0
 36190  1  0
 39191  1  0
 41192  1  0
 41193  1  0
 42194  1  0
 42195  1  0
 43196  1  0
 43197  1  0
 44198  1  0
 45199  1  0
 45200  1  0
 45201  1  0
 48202  1  0
 49203  1  1
 50204  1  0
 50205  1  0
 51206  1  0
 54207  1  0
 55208  1  1
 56209  1  0
 56210  1  0
 57211  1  0
 60212  1  0
 61213  1  1
 62214  1  0
 62215  1  0
 64216  1  0
 65217  1  0
 66218  1  0
 67219  1  0
 68220  1  0
 71221  1  0
 73222  1  0
 73223  1  0
 74224  1  0
 74225  1  0
 75226  1  0
 75227  1  0
 76228  1  0
 77229  1  0
 77230  1  0
 77231  1  0
 80232  1  0
 81233  1  6
 82234  1  0
 82235  1  0
 88236  1  0
 89237  1  1
 90238  1  0
 90239  1  0
 92240  1  0
 93241  1  0
 94242  1  0
 95243  1  0
 96244  1  0
 99245  1  0
100246  1  6
101247  1  0
101248  1  0
103249  1  0
104250  1  0
105251  1  0
106252  1  0
107253  1  0
110254  1  0
111255  1  1
112256  1  0
112257  1  0
114258  1  0
115259  1  0
116260  1  0
120261  1  0
121262  1  6
122263  1  1
123264  1  0
124265  1  0
124266  1  0
124267  1  0
127268  1  0
128269  1  1
129270  1  0
129271  1  0
130272  1  0
130273  1  0
130274  1  0
134275  1  0
134276  1  0
135277  1  0
135278  1  0
136279  1  0
136280  1  0
137281  1  0
140282  1  0
141283  1  1
142284  1  0
142285  1  0
144286  1  0
145287  1  0
147288  1  0
148289  1  0
149290  1  0
152291  1  0
153292  1  1
154293  1  0
154294  1  0
155295  1  0
155296  1  0
156297  1  0
156298  1  0
157299  1  0
157300  1  0
157301  1  0
160302  1  0
161303  1  1
162304  1  0
162305  1  0
163306  1  0
164307  1  0
164308  1  0
164309  1  0
165310  1  0
165311  1  0
165312  1  0
M  CHG  2  85  -1 168  -1
M  END
