
     RDKit          2D

333341  0  0  0  0  0  0  0  0999 V2000
   15.4538   -4.2422    0.0000 C   0  0  0  0  0  0  0  0  0  0  0  0
   16.7171   -5.0510    0.0000 N   0  0  0  0  0  0  0  0  0  0  0  0
   16.6482   -6.5495    0.0000 C   0  0  0  0  0  0  0  0  0  0  0  0
   15.3160   -7.2390    0.0000 C   0  0  0  0  0  0  0  0  0  0  0  0
   15.2471   -8.7374    0.0000 C   0  0  0  0  0  0  0  0  0  0  0  0
   16.5104   -9.5463    0.0000 C   0  0  0  0  0  0  0  0  0  0  0  0
   17.8425   -8.8567    0.0000 C   0  0  0  0  0  0  0  0  0  0  0  0
   17.9114   -7.3583    0.0000 C   0  0  0  0  0  0  0  0  0  0  0  0
   18.9099   -9.9106    0.0000 C   0  0  0  0  0  0  0  0  0  0  0  0
   18.2375  -11.2514    0.0000 O   0  0  0  0  0  0  0  0  0  0  0  0
   16.7545  -11.0263    0.0000 C   0  0  0  0  0  0  0  0  0  0  0  0
   15.7007  -12.0937    0.0000 O   0  0  0  0  0  0  0  0  0  0  0  0
   19.8613  -11.0702    0.0000 C   0  0  0  0  0  0  0  0  0  0  0  0
   21.3413  -10.8261    0.0000 C   0  0  0  0  0  0  0  0  0  0  0  0
   22.2928  -11.9857    0.0000 C   0  0  0  0  0  0  0  0  0  0  0  0
   21.7642  -13.3895    0.0000 C   0  0  0  0  0  0  0  0  0  0  0  0
   20.2842  -13.6337    0.0000 C   0  0  0  0  0  0  0  0  0  0  0  0
   19.3328  -12.4740    0.0000 C   0  0  0  0  0  0  0  0  0  0  0  0
   22.7156  -14.5492    0.0000 O   0  0  0  0  0  0  0  0  0  0  0  0
   21.8699   -9.4223    0.0000 O   0  0  0  0  0  0  0  0  0  0  0  0
   20.9185   -8.2627    0.0000 C   0  0  0  0  0  0  0  0  0  0  0  0
   19.4385   -8.5068    0.0000 C   0  0  0  0  0  0  0  0  0  0  0  0
   19.1777   -7.2332    0.0000 C   0  0  0  0  0  0  0  0  0  0  0  0
   19.4596   -6.4845    0.0000 C   0  0  0  0  0  0  0  0  0  0  0  0
   20.2489   -6.3543    0.0000 C   0  0  0  0  0  0  0  0  0  0  0  0
   20.7564   -6.9728    0.0000 C   0  0  0  0  0  0  0  0  0  0  0  0
   21.0242   -4.2954    0.0000 O   0  0  0  0  0  0  0  0  0  0  0  0
   14.1217   -4.9317    0.0000 S   0  0  0  0  0  0  0  0  0  0  0  0
   15.5227   -2.7437    0.0000 N   0  0  0  0  0  0  0  0  0  0  0  0
   14.2595   -1.9349    0.0000 C   0  0  0  0  0  0  0  0  0  0  0  0
   14.3284   -0.4364    0.0000 C   0  0  0  0  0  0  0  0  0  0  0  0
   13.0652    0.3724    0.0000 C   0  0  0  0  0  0  0  0  0  0  0  0
   12.0688   -0.7488    0.0000 O   0  0  0  0  0  0  0  0  0  0  0  0
   13.1341    1.8708    0.0000 N   0  0  0  0  0  0  0  0  0  0  0  0
   11.8709    2.6797    0.0000 C   0  0  0  0  0  0  0  0  0  0  0  0
   11.6531    1.1956    0.0000 C   0  0  0  0  0  0  0  0  0  0  0  0
   11.0076   -0.1584    0.0000 C   0  0  0  0  0  0  0  0  0  0  0  0
    9.9917   -1.2619    0.0000 C   0  0  0  0  0  0  0  0  0  0  0  0
    8.6956   -2.0170    0.0000 C   0  0  0  0  0  0  0  0  0  0  0  0
   13.1277    3.4985    0.0000 C   0  0  0  0  0  0  0  0  0  0  0  0
   11.6415    4.1621    0.0000 C   0  0  0  0  0  0  0  0  0  0  0  0
   13.0731    4.6098    0.0000 O   0  0  0  0  0  0  0  0  0  0  0  0
   10.9854    5.5110    0.0000 N   0  0  0  0  0  0  0  0  0  0  0  0
    9.9608    6.6065    0.0000 C   0  0  0  0  0  0  0  0  0  0  0  0
   10.1043    8.0997    0.0000 C   0  0  0  0  0  0  0  0  0  0  0  0
   11.4692    8.7219    0.0000 C   0  0  0  0  0  0  0  0  0  0  0  0
   11.6127   10.2151    0.0000 C   0  0  0  0  0  0  0  0  0  0  0  0
   12.9775   10.8374    0.0000 N   0  0  0  0  0  0  0  0  0  0  0  0
   13.1210   12.3305    0.0000 C   0  0  0  0  0  0  0  0  0  0  0  0
   14.4858   12.9528    0.0000 N   0  0  0  0  0  0  0  0  0  0  0  0
   11.8997   13.2013    0.0000 N   0  0  0  0  0  0  0  0  0  0  0  0
    8.6589    7.3515    0.0000 C   0  0  0  0  0  0  0  0  0  0  0  0
    9.2014    8.7499    0.0000 O   0  0  0  0  0  0  0  0  0  0  0  0
    7.1952    7.6795    0.0000 N   0  0  0  0  0  0  0  0  0  0  0  0
    5.6998    7.5615    0.0000 C   0  0  0  0  0  0  0  0  0  0  0  0
    4.6219    8.6047    0.0000 C   0  0  0  0  0  0  0  0  0  0  0  0
    4.9864   10.0597    0.0000 C   0  0  0  0  0  0  0  0  0  0  0  0
    3.9085   11.1029    0.0000 C   0  0  0  0  0  0  0  0  0  0  0  0
    4.2729   12.5579    0.0000 N   0  0  0  0  0  0  0  0  0  0  0  0
    3.1950   13.6011    0.0000 C   0  0  0  0  0  0  0  0  0  0  0  0
    3.5595   15.0561    0.0000 N   0  0  0  0  0  0  0  0  0  0  0  0
    1.7527   13.1892    0.0000 N   0  0  0  0  0  0  0  0  0  0  0  0
    4.3057    7.0081    0.0000 C   0  0  0  0  0  0  0  0  0  0  0  0
    3.5506    8.3042    0.0000 O   0  0  0  0  0  0  0  0  0  0  0  0
    3.1366    6.0682    0.0000 N   0  0  0  0  0  0  0  0  0  0  0  0
    2.2965    4.8256    0.0000 C   0  0  0  0  0  0  0  0  0  0  0  0
    0.8089    4.6332    0.0000 C   0  0  0  0  0  0  0  0  0  0  0  0
   -0.1015    5.8254    0.0000 C   0  0  0  0  0  0  0  0  0  0  0  0
   -1.5592    6.1790    0.0000 N   0  0  0  0  0  0  0  0  0  0  0  0
    0.6402    7.1292    0.0000 O   0  0  0  0  0  0  0  0  0  0  0  0
    1.8600    3.3905    0.0000 C   0  0  0  0  0  0  0  0  0  0  0  0
    1.0879    3.8247    0.0000 O   0  0  0  0  0  0  0  0  0  0  0  0
    1.8658    1.8905    0.0000 N   0  0  0  0  0  0  0  0  0  0  0  0
    2.3136    0.4589    0.0000 C   0  0  0  0  0  0  0  0  0  0  0  0
    3.1634   -0.7771    0.0000 C   0  0  0  0  0  0  0  0  0  0  0  0
    4.3398   -1.7078    0.0000 C   0  0  0  0  0  0  0  0  0  0  0  0
    5.7383   -2.2503    0.0000 C   0  0  0  0  0  0  0  0  0  0  0  0
    7.2345   -2.3565    0.0000 C   0  0  0  0  0  0  0  0  0  0  0  0
    2.1625   -1.1278    0.0000 C   0  0  0  0  0  0  0  0  0  0  0  0
    2.3898   -2.4757    0.0000 C   0  0  0  0  0  0  0  0  0  0  0  0
    2.3580   -3.8422    0.0000 C   0  0  0  0  0  0  0  0  0  0  0  0
    2.0681   -5.1780    0.0000 C   0  0  0  0  0  0  0  0  0  0  0  0
    0.9721    1.3195    0.0000 C   0  0  0  0  0  0  0  0  0  0  0  0
    2.7326    2.6389    0.0000 O   0  0  0  0  0  0  0  0  0  0  0  0
    0.0521    2.3305    0.0000 N   0  0  0  0  0  0  0  0  0  0  0  0
   -1.0426    3.1491    0.0000 C   0  0  0  0  0  0  0  0  0  0  0  0
   -0.6913    5.2470    0.0000 C   0  0  0  0  0  0  0  0  0  0  0  0
   -1.9966    5.9860    0.0000 C   0  0  0  0  0  0  0  0  0  0  0  0
   -2.0093    7.4859    0.0000 C   0  0  0  0  0  0  0  0  0  0  0  0
   -3.3146    8.2249    0.0000 N   0  0  0  0  0  0  0  0  0  0  0  0
   -3.3273    9.7248    0.0000 C   0  0  0  0  0  0  0  0  0  0  0  0
   -4.4150   10.7577    0.0000 N   0  0  0  0  0  0  0  0  0  0  0  0
   -2.0347   10.4858    0.0000 N   0  0  0  0  0  0  0  0  0  0  0  0
   -2.2725    3.7457    0.0000 C   0  0  0  0  0  0  0  0  0  0  0  0
   -2.0434    5.9017    0.0000 O   0  0  0  0  0  0  0  0  0  0  0  0
   -3.5930    4.0988    0.0000 N   0  0  0  0  0  0  0  0  0  0  0  0
   -4.9565    4.1957    0.0000 C   0  0  0  0  0  0  0  0  0  0  0  0
   -5.7951    6.1504    0.0000 C   0  0  0  0  0  0  0  0  0  0  0  0
   -5.1191    7.4894    0.0000 C   0  0  0  0  0  0  0  0  0  0  0  0
   -5.9407    8.7444    0.0000 C   0  0  0  0  0  0  0  0  0  0  0  0
   -5.2646   10.0834    0.0000 N   0  0  0  0  0  0  0  0  0  0  0  0
   -6.0862   11.3384    0.0000 C   0  0  0  0  0  0  0  0  0  0  0  0
   -5.4102   12.6774    0.0000 N   0  0  0  0  0  0  0  0  0  0  0  0
   -7.5839   11.2544    0.0000 N   0  0  0  0  0  0  0  0  0  0  0  0
   -6.3137    4.0327    0.0000 C   0  0  0  0  0  0  0  0  0  0  0  0
   -6.9587    6.1323    0.0000 O   0  0  0  0  0  0  0  0  0  0  0  0
   -7.6155    3.6158    0.0000 N   0  0  0  0  0  0  0  0  0  0  0  0
   -8.8148    2.9601    0.0000 C   0  0  0  0  0  0  0  0  0  0  0  0
  -10.5772    4.1511    0.0000 C   0  0  0  0  0  0  0  0  0  0  0  0
  -10.7324    5.6431    0.0000 C   0  0  0  0  0  0  0  0  0  0  0  0
  -12.1020    6.2547    0.0000 C   0  0  0  0  0  0  0  0  0  0  0  0
  -12.2572    7.7466    0.0000 N   0  0  0  0  0  0  0  0  0  0  0  0
  -13.6269    8.3582    0.0000 C   0  0  0  0  0  0  0  0  0  0  0  0
  -13.7821    9.8501    0.0000 N   0  0  0  0  0  0  0  0  0  0  0  0
  -14.8414    7.4778    0.0000 N   0  0  0  0  0  0  0  0  0  0  0  0
   -9.8685    2.0892    0.0000 C   0  0  0  0  0  0  0  0  0  0  0  0
  -11.5462    3.5068    0.0000 O   0  0  0  0  0  0  0  0  0  0  0  0
  -10.7382    1.0347    0.0000 N   0  0  0  0  0  0  0  0  0  0  0  0
  -11.3927   -0.1653    0.0000 C   0  0  0  0  0  0  0  0  0  0  0  0
  -13.5192   -0.1161    0.0000 C   0  0  0  0  0  0  0  0  0  0  0  0
  -14.4564    1.0551    0.0000 C   0  0  0  0  0  0  0  0  0  0  0  0
  -14.0597    2.5017    0.0000 C   0  0  0  0  0  0  0  0  0  0  0  0
  -15.3129    3.3259    0.0000 N   0  0  0  0  0  0  0  0  0  0  0  0
  -16.4841    2.3888    0.0000 C   0  0  0  0  0  0  0  0  0  0  0  0
  -17.9643    2.6321    0.0000 C   0  0  0  0  0  0  0  0  0  0  0  0
  -18.9150    1.4719    0.0000 C   0  0  0  0  0  0  0  0  0  0  0  0
  -18.3856    0.0684    0.0000 C   0  0  0  0  0  0  0  0  0  0  0  0
  -16.9055   -0.1749    0.0000 C   0  0  0  0  0  0  0  0  0  0  0  0
  -15.9547    0.9853    0.0000 C   0  0  0  0  0  0  0  0  0  0  0  0
  -11.8082   -1.4676    0.0000 C   0  0  0  0  0  0  0  0  0  0  0  0
  -13.9860   -1.1821    0.0000 O   0  0  0  0  0  0  0  0  0  0  0  0
  -11.9698   -2.8249    0.0000 N   0  0  0  0  0  0  0  0  0  0  0  0
  -11.8716   -4.1883    0.0000 C   0  0  0  0  0  0  0  0  0  0  0  0
  -13.6871   -5.2966    0.0000 C   0  0  0  0  0  0  0  0  0  0  0  0
  -15.1087   -4.8180    0.0000 C   0  0  0  0  0  0  0  0  0  0  0  0
  -16.2340   -5.8098    0.0000 C   0  0  0  0  0  0  0  0  0  0  0  0
  -17.6556   -5.3312    0.0000 N   0  0  0  0  0  0  0  0  0  0  0  0
  -18.7809   -6.3230    0.0000 C   0  0  0  0  0  0  0  0  0  0  0  0
  -20.2025   -5.8444    0.0000 N   0  0  0  0  0  0  0  0  0  0  0  0
  -18.4846   -7.7935    0.0000 N   0  0  0  0  0  0  0  0  0  0  0  0
  -11.5171   -5.5085    0.0000 C   0  0  0  0  0  0  0  0  0  0  0  0
  -13.5035   -6.4457    0.0000 O   0  0  0  0  0  0  0  0  0  0  0  0
  -10.9192   -6.7377    0.0000 N   0  0  0  0  0  0  0  0  0  0  0  0
  -10.0995   -7.8315    0.0000 C   0  0  0  0  0  0  0  0  0  0  0  0
  -11.0276   -9.7454    0.0000 C   0  0  0  0  0  0  0  0  0  0  0  0
  -12.4823  -10.1114    0.0000 C   0  0  0  0  0  0  0  0  0  0  0  0
  -12.8927  -11.5541    0.0000 C   0  0  0  0  0  0  0  0  0  0  0  0
  -14.3474  -11.9201    0.0000 N   0  0  0  0  0  0  0  0  0  0  0  0
  -14.7578  -13.3628    0.0000 C   0  0  0  0  0  0  0  0  0  0  0  0
  -16.2125  -13.7288    0.0000 N   0  0  0  0  0  0  0  0  0  0  0  0
  -13.7136  -14.4396    0.0000 N   0  0  0  0  0  0  0  0  0  0  0  0
   -9.0875   -8.7505    0.0000 C   0  0  0  0  0  0  0  0  0  0  0  0
  -10.2519  -10.6129    0.0000 O   0  0  0  0  0  0  0  0  0  0  0  0
   -7.9200   -9.4613    0.0000 N   0  0  0  0  0  0  0  0  0  0  0  0
   -6.6390   -9.9383    0.0000 C   0  0  0  0  0  0  0  0  0  0  0  0
   -5.2909  -10.1643    0.0000 C   0  0  0  0  0  0  0  0  0  0  0  0
   -3.9244  -10.1311    0.0000 C   0  0  0  0  0  0  0  0  0  0  0  0
   -2.5888   -9.8398    0.0000 C   0  0  0  0  0  0  0  0  0  0  0  0
   -1.3326   -9.3011    0.0000 C   0  0  0  0  0  0  0  0  0  0  0  0
   -0.2009   -8.5343    0.0000 C   0  0  0  0  0  0  0  0  0  0  0  0
    0.7651   -7.5673    0.0000 C   0  0  0  0  0  0  0  0  0  0  0  0
    1.5307   -6.4349    0.0000 C   0  0  0  0  0  0  0  0  0  0  0  0
   -7.9131  -11.6416    0.0000 C   0  0  0  0  0  0  0  0  0  0  0  0
   -6.3851  -12.0502    0.0000 C   0  0  0  0  0  0  0  0  0  0  0  0
   -7.2699  -13.2614    0.0000 O   0  0  0  0  0  0  0  0  0  0  0  0
   -5.0504  -12.7348    0.0000 O   0  0  0  0  0  0  0  0  0  0  0  0
   17.9552   -4.2043    0.0000 H   0  0  0  0  0  0  0  0  0  0  0  0
   14.0528   -6.4301    0.0000 H   0  0  0  0  0  0  0  0  0  0  0  0
   13.9150   -9.4269    0.0000 H   0  0  0  0  0  0  0  0  0  0  0  0
   19.0370   -6.3669    0.0000 H   0  0  0  0  0  0  0  0  0  0  0  0
   23.7728  -11.7416    0.0000 H   0  0  0  0  0  0  0  0  0  0  0  0
   19.7557  -15.0374    0.0000 H   0  0  0  0  0  0  0  0  0  0  0  0
   17.8528  -12.7182    0.0000 H   0  0  0  0  0  0  0  0  0  0  0  0
   22.1871  -15.9529    0.0000 H   0  0  0  0  0  0  0  0  0  0  0  0
   17.0070   -7.5913    0.0000 H   0  0  0  0  0  0  0  0  0  0  0  0
   18.2126   -4.6764    0.0000 H   0  0  0  0  0  0  0  0  0  0  0  0
   22.9270   -6.6147    0.0000 H   0  0  0  0  0  0  0  0  0  0  0  0
   22.5042   -4.0513    0.0000 H   0  0  0  0  0  0  0  0  0  0  0  0
   16.8548   -2.0542    0.0000 H   0  0  0  0  0  0  0  0  0  0  0  0
   13.6823   -3.3194    0.0000 H   0  0  0  0  0  0  0  0  0  0  0  0
   12.7958   -1.6068    0.0000 H   0  0  0  0  0  0  0  0  0  0  0  0
   15.7921   -0.7645    0.0000 H   0  0  0  0  0  0  0  0  0  0  0  0
   14.9056    0.9480    0.0000 H   0  0  0  0  0  0  0  0  0  0  0  0
   14.5403    2.3929    0.0000 H   0  0  0  0  0  0  0  0  0  0  0  0
   13.1523    1.2463    0.0000 H   0  0  0  0  0  0  0  0  0  0  0  0
   12.4750   -0.0592    0.0000 H   0  0  0  0  0  0  0  0  0  0  0  0
   12.3169   -0.8904    0.0000 H   0  0  0  0  0  0  0  0  0  0  0  0
   11.7595   -1.4563    0.0000 H   0  0  0  0  0  0  0  0  0  0  0  0
   11.3472   -1.9041    0.0000 H   0  0  0  0  0  0  0  0  0  0  0  0
   10.1469   -2.7539    0.0000 H   0  0  0  0  0  0  0  0  0  0  0  0
    9.2490   -3.4112    0.0000 H   0  0  0  0  0  0  0  0  0  0  0  0
   14.5380    2.9875    0.0000 H   0  0  0  0  0  0  0  0  0  0  0  0
   14.0287    4.6977    0.0000 H   0  0  0  0  0  0  0  0  0  0  0  0
   12.3987    4.8094    0.0000 H   0  0  0  0  0  0  0  0  0  0  0  0
   12.2214    6.3608    0.0000 H   0  0  0  0  0  0  0  0  0  0  0  0
   11.4292    6.9131    0.0000 H   0  0  0  0  0  0  0  0  0  0  0  0
    9.5543    9.4952    0.0000 H   0  0  0  0  0  0  0  0  0  0  0  0
    8.6249    8.3471    0.0000 H   0  0  0  0  0  0  0  0  0  0  0  0
   12.9645    8.8399    0.0000 H   0  0  0  0  0  0  0  0  0  0  0  0
   12.0192    7.3264    0.0000 H   0  0  0  0  0  0  0  0  0  0  0  0
   11.2368   11.6672    0.0000 H   0  0  0  0  0  0  0  0  0  0  0  0
   10.1141   10.2803    0.0000 H   0  0  0  0  0  0  0  0  0  0  0  0
   14.1988    9.9665    0.0000 H   0  0  0  0  0  0  0  0  0  0  0  0
   14.6293   14.4459    0.0000 H   0  0  0  0  0  0  0  0  0  0  0  0
   15.7072   12.0819    0.0000 H   0  0  0  0  0  0  0  0  0  0  0  0
   12.0432   14.6944    0.0000 H   0  0  0  0  0  0  0  0  0  0  0  0
   10.5348   12.5790    0.0000 H   0  0  0  0  0  0  0  0  0  0  0  0
    7.3014    9.1757    0.0000 H   0  0  0  0  0  0  0  0  0  0  0  0
    6.3756    8.9007    0.0000 H   0  0  0  0  0  0  0  0  0  0  0  0
    3.1879    9.0447    0.0000 H   0  0  0  0  0  0  0  0  0  0  0  0
    3.5061    7.6022    0.0000 H   0  0  0  0  0  0  0  0  0  0  0  0
    5.8265   11.3024    0.0000 H   0  0  0  0  0  0  0  0  0  0  0  0
    6.4204    9.6197    0.0000 H   0  0  0  0  0  0  0  0  0  0  0  0
    2.5388   11.7145    0.0000 H   0  0  0  0  0  0  0  0  0  0  0  0
    2.9231    9.9719    0.0000 H   0  0  0  0  0  0  0  0  0  0  0  0
    5.7152   12.9699    0.0000 H   0  0  0  0  0  0  0  0  0  0  0  0
    2.4816   16.0993    0.0000 H   0  0  0  0  0  0  0  0  0  0  0  0
    5.0018   15.4680    0.0000 H   0  0  0  0  0  0  0  0  0  0  0  0
    0.6748   14.2323    0.0000 H   0  0  0  0  0  0  0  0  0  0  0  0
    1.3882   11.7341    0.0000 H   0  0  0  0  0  0  0  0  0  0  0  0
    2.0330    7.0842    0.0000 H   0  0  0  0  0  0  0  0  0  0  0  0
    1.5093    6.1025    0.0000 H   0  0  0  0  0  0  0  0  0  0  0  0
   -0.6505    4.2865    0.0000 H   0  0  0  0  0  0  0  0  0  0  0  0
    0.7137    3.1363    0.0000 H   0  0  0  0  0  0  0  0  0  0  0  0
   -2.4995    6.8252    0.0000 H   0  0  0  0  0  0  0  0  0  0  0  0
   -2.3972    4.3370    0.0000 H   0  0  0  0  0  0  0  0  0  0  0  0
    0.3835    1.6611    0.0000 H   0  0  0  0  0  0  0  0  0  0  0  0
    2.9791   -2.2658    0.0000 H   0  0  0  0  0  0  0  0  0  0  0  0
    1.6872   -1.0434    0.0000 H   0  0  0  0  0  0  0  0  0  0  0  0
    4.6024   -3.1846    0.0000 H   0  0  0  0  0  0  0  0  0  0  0  0
    3.3434   -2.8290    0.0000 H   0  0  0  0  0  0  0  0  0  0  0  0
    6.2568   -3.6578    0.0000 H   0  0  0  0  0  0  0  0  0  0  0  0
    5.1166   -3.6154    0.0000 H   0  0  0  0  0  0  0  0  0  0  0  0
    7.3524   -3.8519    0.0000 H   0  0  0  0  0  0  0  0  0  0  0  0
    3.8644    0.1481    0.0000 H   0  0  0  0  0  0  0  0  0  0  0  0
    4.2111   -1.5513    0.0000 H   0  0  0  0  0  0  0  0  0  0  0  0
    4.5374   -2.0388    0.0000 H   0  0  0  0  0  0  0  0  0  0  0  0
    4.3212   -3.2793    0.0000 H   0  0  0  0  0  0  0  0  0  0  0  0
    4.5494   -3.8197    0.0000 H   0  0  0  0  0  0  0  0  0  0  0  0
    4.2253   -4.8609    0.0000 H   0  0  0  0  0  0  0  0  0  0  0  0
    4.1640   -5.8468    0.0000 H   0  0  0  0  0  0  0  0  0  0  0  0
    1.3882    4.0738    0.0000 H   0  0  0  0  0  0  0  0  0  0  0  0
    0.4560    4.7282    0.0000 H   0  0  0  0  0  0  0  0  0  0  0  0
   -0.1902    6.6608    0.0000 H   0  0  0  0  0  0  0  0  0  0  0  0
    0.7468    4.8205    0.0000 H   0  0  0  0  0  0  0  0  0  0  0  0
   -3.4347    6.4124    0.0000 H   0  0  0  0  0  0  0  0  0  0  0  0
   -2.9712    4.8457    0.0000 H   0  0  0  0  0  0  0  0  0  0  0  0
   -1.5082    8.8997    0.0000 H   0  0  0  0  0  0  0  0  0  0  0  0
   -0.5108    7.4201    0.0000 H   0  0  0  0  0  0  0  0  0  0  0  0
   -4.7530    7.7994    0.0000 H   0  0  0  0  0  0  0  0  0  0  0  0
   -4.6453   11.9638    0.0000 H   0  0  0  0  0  0  0  0  0  0  0  0
   -6.1357   10.0997    0.0000 H   0  0  0  0  0  0  0  0  0  0  0  0
   -2.0473   11.9857    0.0000 H   0  0  0  0  0  0  0  0  0  0  0  0
   -0.7293    9.7468    0.0000 H   0  0  0  0  0  0  0  0  0  0  0  0
   -3.2293    6.2686    0.0000 H   0  0  0  0  0  0  0  0  0  0  0  0
   -4.2139    6.1889    0.0000 H   0  0  0  0  0  0  0  0  0  0  0  0
   -6.9964    7.0487    0.0000 H   0  0  0  0  0  0  0  0  0  0  0  0
   -7.1044    5.4185    0.0000 H   0  0  0  0  0  0  0  0  0  0  0  0
   -4.3068    8.7505    0.0000 H   0  0  0  0  0  0  0  0  0  0  0  0
   -3.8172    6.7443    0.0000 H   0  0  0  0  0  0  0  0  0  0  0  0
   -7.1419    9.6427    0.0000 H   0  0  0  0  0  0  0  0  0  0  0  0
   -7.1509    7.8583    0.0000 H   0  0  0  0  0  0  0  0  0  0  0  0
   -3.8318   10.5274    0.0000 H   0  0  0  0  0  0  0  0  0  0  0  0
   -6.2318   13.9324    0.0000 H   0  0  0  0  0  0  0  0  0  0  0  0
   -3.9125   12.7615    0.0000 H   0  0  0  0  0  0  0  0  0  0  0  0
   -8.4055   12.5094    0.0000 H   0  0  0  0  0  0  0  0  0  0  0  0
   -8.2599    9.9154    0.0000 H   0  0  0  0  0  0  0  0  0  0  0  0
   -8.3101    5.6995    0.0000 H   0  0  0  0  0  0  0  0  0  0  0  0
   -9.0846    5.0345    0.0000 H   0  0  0  0  0  0  0  0  0  0  0  0
  -12.0734    4.2574    0.0000 H   0  0  0  0  0  0  0  0  0  0  0  0
  -11.2829    2.8275    0.0000 H   0  0  0  0  0  0  0  0  0  0  0  0
  -10.3679    7.0981    0.0000 H   0  0  0  0  0  0  0  0  0  0  0  0
   -9.2549    5.9021    0.0000 H   0  0  0  0  0  0  0  0  0  0  0  0
  -13.5983    6.3609    0.0000 H   0  0  0  0  0  0  0  0  0  0  0  0
  -12.6411    4.8549    0.0000 H   0  0  0  0  0  0  0  0  0  0  0  0
  -11.0428    8.6270    0.0000 H   0  0  0  0  0  0  0  0  0  0  0  0
  -15.1518   10.4617    0.0000 H   0  0  0  0  0  0  0  0  0  0  0  0
  -12.5676   10.7305    0.0000 H   0  0  0  0  0  0  0  0  0  0  0  0
  -16.2110    8.0894    0.0000 H   0  0  0  0  0  0  0  0  0  0  0  0
  -14.6862    5.9859    0.0000 H   0  0  0  0  0  0  0  0  0  0  0  0
  -12.4491    2.4121    0.0000 H   0  0  0  0  0  0  0  0  0  0  0  0
  -12.8973    1.3382    0.0000 H   0  0  0  0  0  0  0  0  0  0  0  0
  -14.9132   -0.6699    0.0000 H   0  0  0  0  0  0  0  0  0  0  0  0
  -13.3972   -1.6112    0.0000 H   0  0  0  0  0  0  0  0  0  0  0  0
  -12.7312    3.1982    0.0000 H   0  0  0  0  0  0  0  0  0  0  0  0
  -15.3827    4.8243    0.0000 H   0  0  0  0  0  0  0  0  0  0  0  0
  -18.4936    4.0355    0.0000 H   0  0  0  0  0  0  0  0  0  0  0  0
  -20.3952    1.7151    0.0000 H   0  0  0  0  0  0  0  0  0  0  0  0
  -19.3364   -1.0918    0.0000 H   0  0  0  0  0  0  0  0  0  0  0  0
  -16.3761   -1.5784    0.0000 H   0  0  0  0  0  0  0  0  0  0  0  0
  -14.1538   -2.5912    0.0000 H   0  0  0  0  0  0  0  0  0  0  0  0
  -13.8706   -3.5719    0.0000 H   0  0  0  0  0  0  0  0  0  0  0  0
  -14.4053   -6.6135    0.0000 H   0  0  0  0  0  0  0  0  0  0  0  0
  -12.7763   -6.4884    0.0000 H   0  0  0  0  0  0  0  0  0  0  0  0
  -16.2809   -3.8820    0.0000 H   0  0  0  0  0  0  0  0  0  0  0  0
  -14.7305   -3.3664    0.0000 H   0  0  0  0  0  0  0  0  0  0  0  0
  -16.9522   -7.1267    0.0000 H   0  0  0  0  0  0  0  0  0  0  0  0
  -15.1846   -6.8817    0.0000 H   0  0  0  0  0  0  0  0  0  0  0  0
  -17.9519   -3.8608    0.0000 H   0  0  0  0  0  0  0  0  0  0  0  0
  -21.3277   -6.8363    0.0000 H   0  0  0  0  0  0  0  0  0  0  0  0
  -20.4988   -4.3740    0.0000 H   0  0  0  0  0  0  0  0  0  0  0  0
  -19.6098   -8.7853    0.0000 H   0  0  0  0  0  0  0  0  0  0  0  0
  -17.0630   -8.2721    0.0000 H   0  0  0  0  0  0  0  0  0  0  0  0
  -12.8828   -7.7218    0.0000 H   0  0  0  0  0  0  0  0  0  0  0  0
  -12.1144   -8.3938    0.0000 H   0  0  0  0  0  0  0  0  0  0  0  0
  -10.9198  -11.2415    0.0000 H   0  0  0  0  0  0  0  0  0  0  0  0
   -9.6170  -10.2556    0.0000 H   0  0  0  0  0  0  0  0  0  0  0  0
  -13.9744   -9.9577    0.0000 H   0  0  0  0  0  0  0  0  0  0  0  0
  -12.9489   -8.6858    0.0000 H   0  0  0  0  0  0  0  0  0  0  0  0
  -12.7849  -13.0503    0.0000 H   0  0  0  0  0  0  0  0  0  0  0  0
  -11.4305  -11.8885    0.0000 H   0  0  0  0  0  0  0  0  0  0  0  0
  -15.3916  -10.8433    0.0000 H   0  0  0  0  0  0  0  0  0  0  0  0
  -16.6229  -15.1715    0.0000 H   0  0  0  0  0  0  0  0  0  0  0  0
  -17.2567  -12.6520    0.0000 H   0  0  0  0  0  0  0  0  0  0  0  0
  -14.1240  -15.8824    0.0000 H   0  0  0  0  0  0  0  0  0  0  0  0
  -12.2589  -14.0737    0.0000 H   0  0  0  0  0  0  0  0  0  0  0  0
   -9.0399  -11.3508    0.0000 H   0  0  0  0  0  0  0  0  0  0  0  0
   -4.6419  -12.1900    0.0000 H   0  0  0  0  0  0  0  0  0  0  0  0
   -5.8994  -12.2546    0.0000 H   0  0  0  0  0  0  0  0  0  0  0  0
   -3.0535  -12.1028    0.0000 H   0  0  0  0  0  0  0  0  0  0  0  0
   -4.1263  -12.2987    0.0000 H   0  0  0  0  0  0  0  0  0  0  0  0
   -1.3605  -11.6111    0.0000 H   0  0  0  0  0  0  0  0  0  0  0  0
   -2.5597  -11.9951    0.0000 H   0  0  0  0  0  0  0  0  0  0  0  0
    0.2087  -10.8079    0.0000 H   0  0  0  0  0  0  0  0  0  0  0  0
   -0.8961  -11.4119    0.0000 H   0  0  0  0  0  0  0  0  0  0  0  0
    1.5977   -9.7222    0.0000 H   0  0  0  0  0  0  0  0  0  0  0  0
    0.6271  -10.5244    0.0000 H   0  0  0  0  0  0  0  0  0  0  0  0
    2.7916   -8.2136    0.0000 H   0  0  0  0  0  0  0  0  0  0  0  0
    1.9549   -9.3647    0.0000 H   0  0  0  0  0  0  0  0  0  0  0  0
    3.4621   -7.4882    0.0000 H   0  0  0  0  0  0  0  0  0  0  0  0
   -7.7508  -13.1328    0.0000 H   0  0  0  0  0  0  0  0  0  0  0  0
   -9.2093  -12.3965    0.0000 H   0  0  0  0  0  0  0  0  0  0  0  0
   -9.0139  -10.6227    0.0000 H   0  0  0  0  0  0  0  0  0  0  0  0
  1  2  1  0
  2  3  1  0
  3  4  2  0
  4  5  1  0
  5  6  2  0
  6  7  1  0
  7  8  2  0
  7  9  1  0
  9 10  1  0
 10 11  1  0
 11 12  2  0
  9 13  1  0
 13 14  1  0
 14 15  2  0
 15 16  1  0
 16 17  2  0
 17 18  1  0
 16 19  1  0
 14 20  1  0
 20 21  1  0
 21 22  2  0
 22 23  1  0
 23 24  2  0
 24 25  1  0
 25 26  2  0
 25 27  1  0
  1 28  2  0
  1 29  1  0
 29 30  1  0
 30 31  1  0
 31 32  1  0
 32 33  2  0
 32 34  1  0
 35 34  1  1
 35 36  1  0
 36 37  1  0
 37 38  1  0
 38 39  1  0
 35 40  1  0
 35 41  1  0
 41 42  2  0
 41 43  1  0
 43 44  1  0
 44 45  1  0
 45 46  1  0
 46 47  1  0
 47 48  1  0
 48 49  1  0
 49 50  2  3
 49 51  1  0
 44 52  1  0
 52 53  2  0
 52 54  1  0
 54 55  1  0
 55 56  1  0
 56 57  1  0
 57 58  1  0
 58 59  1  0
 59 60  1  0
 60 61  2  3
 60 62  1  0
 55 63  1  0
 63 64  2  0
 63 65  1  0
 65 66  1  0
 66 67  1  0
 67 68  1  0
 68 69  1  0
 68 70  2  0
 66 71  1  0
 71 72  2  0
 71 73  1  0
 73 74  1  0
 74 75  1  0
 75 76  1  0
 76 77  1  0
 77 78  1  0
 74 79  1  0
 79 80  1  0
 80 81  1  0
 81 82  1  0
 74 83  1  0
 83 84  2  0
 83 85  1  0
 85 86  1  0
 86 87  1  0
 87 88  1  0
 88 89  1  0
 89 90  1  0
 90 91  1  0
 91 92  2  3
 91 93  1  0
 86 94  1  0
 94 95  2  0
 94 96  1  0
 96 97  1  0
 97 98  1  0
 98 99  1  0
 99100  1  0
100101  1  0
101102  1  0
102103  2  3
102104  1  0
 97105  1  0
105106  2  0
105107  1  0
107108  1  0
108109  1  0
109110  1  0
110111  1  0
111112  1  0
112113  1  0
113114  2  3
113115  1  0
108116  1  0
116117  2  0
116118  1  0
118119  1  0
119120  1  0
120121  1  0
121122  2  0
122123  1  0
123124  1  0
124125  2  0
125126  1  0
126127  2  0
127128  1  0
128129  2  0
119130  1  0
130131  2  0
130132  1  0
132133  1  0
133134  1  0
134135  1  0
135136  1  0
136137  1  0
137138  1  0
138139  2  3
138140  1  0
133141  1  0
141142  2  0
141143  1  0
143144  1  0
144145  1  0
145146  1  0
146147  1  0
147148  1  0
148149  1  0
149150  2  3
149151  1  0
144152  1  0
152153  2  0
152154  1  0
154155  1  0
155156  1  0
156157  1  0
157158  1  0
158159  1  0
159160  1  0
160161  1  0
161162  1  0
155163  1  0
155164  1  1
164165  2  0
164166  1  0
  8  3  1  0
129121  1  0
 11  6  1  0
129124  1  0
 18 13  2  0
 39 78  2  0
 22  9  1  0
 82162  2  0
 26 21  1  0
  2167  1  0
  4168  1  0
  5169  1  0
  8170  1  0
 15171  1  0
 17172  1  0
 18173  1  0
 19174  1  0
 23175  1  0
 24176  1  0
 26177  1  0
 27178  1  0
 29179  1  0
 30180  1  0
 30181  1  0
 31182  1  0
 31183  1  0
 34184  1  0
 36185  1  0
 36186  1  0
 37187  1  0
 37188  1  0
 38189  1  0
 38190  1  0
 39191  1  0
 40192  1  0
 40193  1  0
 40194  1  0
 43195  1  0
 44196  1  6
 45197  1  0
 45198  1  0
 46199  1  0
 46200  1  0
 47201  1  0
 47202  1  0
 48203  1  0
 50204  1  0
 50205  1  0
 51206  1  0
 51207  1  0
 54208  1  0
 55209  1  6
 56210  1  0
 56211  1  0
 57212  1  0
 57213  1  0
 58214  1  0
 58215  1  0
 59216  1  0
 61217  1  0
 61218  1  0
 62219  1  0
 62220  1  0
 65221  1  0
 66222  1  6
 67223  1  0
 67224  1  0
 69225  1  0
 69226  1  0
 73227  1  0
 75228  1  0
 75229  1  0
 76230  1  0
 76231  1  0
 77232  1  0
 77233  1  0
 78234  1  0
 79235  1  0
 79236  1  0
 80237  1  0
 80238  1  0
 81239  1  0
 81240  1  0
 82241  1  0
 85242  1  0
 86243  1  6
 87244  1  0
 87245  1  0
 88246  1  0
 88247  1  0
 89248  1  0
 89249  1  0
 90250  1  0
 92251  1  0
 92252  1  0
 93253  1  0
 93254  1  0
 96255  1  0
 97256  1  6
 98257  1  0
 98258  1  0
 99259  1  0
 99260  1  0
100261  1  0
100262  1  0
101263  1  0
103264  1  0
103265  1  0
104266  1  0
104267  1  0
107268  1  0
108269  1  6
109270  1  0
109271  1  0
110272  1  0
110273  1  0
111274  1  0
111275  1  0
112276  1  0
114277  1  0
114278  1  0
115279  1  0
115280  1  0
118281  1  0
119282  1  6
120283  1  0
120284  1  0
122285  1  0
123286  1  0
125287  1  0
126288  1  0
127289  1  0
128290  1  0
132291  1  0
133292  1  6
134293  1  0
134294  1  0
135295  1  0
135296  1  0
136297  1  0
136298  1  0
137299  1  0
139300  1  0
139301  1  0
140302  1  0
140303  1  0
143304  1  0
144305  1  6
145306  1  0
145307  1  0
146308  1  0
146309  1  0
147310  1  0
147311  1  0
148312  1  0
150313  1  0
150314  1  0
151315  1  0
151316  1  0
154317  1  0
156318  1  0
156319  1  0
157320  1  0
157321  1  0
158322  1  0
158323  1  0
159324  1  0
159325  1  0
160326  1  0
160327  1  0
161328  1  0
161329  1  0
162330  1  0
163331  1  0
163332  1  0
163333  1  0
M  CHG  8  50   1  61   1  92   1 103   1 114   1 139   1 150   1 166  -1
M  END
