
     RDKit          2D

428436  0  0  0  0  0  0  0  0999 V2000
   13.3209  -10.9592    0.0000 C   0  0  0  0  0  0  0  0  0  0  0  0
   13.7598  -12.3936    0.0000 N   0  0  0  0  0  0  0  0  0  0  0  0
   12.7371  -13.4908    0.0000 C   0  0  0  0  0  0  0  0  0  0  0  0
   11.2754  -13.1538    0.0000 C   0  0  0  0  0  0  0  0  0  0  0  0
   10.2527  -14.2511    0.0000 C   0  0  0  0  0  0  0  0  0  0  0  0
   10.6916  -15.6854    0.0000 C   0  0  0  0  0  0  0  0  0  0  0  0
   12.1532  -16.0225    0.0000 C   0  0  0  0  0  0  0  0  0  0  0  0
   13.1760  -14.9252    0.0000 C   0  0  0  0  0  0  0  0  0  0  0  0
   12.2843  -17.5167    0.0000 C   0  0  0  0  0  0  0  0  0  0  0  0
   10.9037  -18.1032    0.0000 O   0  0  0  0  0  0  0  0  0  0  0  0
    9.9194  -16.9713    0.0000 C   0  0  0  0  0  0  0  0  0  0  0  0
    8.4251  -17.1024    0.0000 O   0  0  0  0  0  0  0  0  0  0  0  0
   12.2585  -19.0165    0.0000 C   0  0  0  0  0  0  0  0  0  0  0  0
   13.5445  -19.7888    0.0000 C   0  0  0  0  0  0  0  0  0  0  0  0
   13.5186  -21.2885    0.0000 C   0  0  0  0  0  0  0  0  0  0  0  0
   12.2069  -22.0161    0.0000 C   0  0  0  0  0  0  0  0  0  0  0  0
   10.9209  -21.2438    0.0000 C   0  0  0  0  0  0  0  0  0  0  0  0
   10.9468  -19.7440    0.0000 C   0  0  0  0  0  0  0  0  0  0  0  0
   12.1811  -23.5158    0.0000 O   0  0  0  0  0  0  0  0  0  0  0  0
   14.8562  -19.0612    0.0000 O   0  0  0  0  0  0  0  0  0  0  0  0
   14.8820  -17.5615    0.0000 C   0  0  0  0  0  0  0  0  0  0  0  0
   13.5961  -16.7892    0.0000 C   0  0  0  0  0  0  0  0  0  0  0  0
   14.2220  -15.6498    0.0000 C   0  0  0  0  0  0  0  0  0  0  0  0
   14.9216  -15.2618    0.0000 C   0  0  0  0  0  0  0  0  0  0  0  0
   15.6074  -15.6737    0.0000 C   0  0  0  0  0  0  0  0  0  0  0  0
   15.5937  -16.4735    0.0000 C   0  0  0  0  0  0  0  0  0  0  0  0
   17.5313  -14.6066    0.0000 O   0  0  0  0  0  0  0  0  0  0  0  0
   11.8593  -10.6221    0.0000 S   0  0  0  0  0  0  0  0  0  0  0  0
   14.3436   -9.8619    0.0000 N   0  0  0  0  0  0  0  0  0  0  0  0
   13.9047   -8.4276    0.0000 C   0  0  0  0  0  0  0  0  0  0  0  0
   14.9275   -7.3303    0.0000 C   0  0  0  0  0  0  0  0  0  0  0  0
   14.4885   -5.8960    0.0000 C   0  0  0  0  0  0  0  0  0  0  0  0
   13.1388   -5.9199    0.0000 O   0  0  0  0  0  0  0  0  0  0  0  0
   15.5113   -4.7987    0.0000 N   0  0  0  0  0  0  0  0  0  0  0  0
   15.0724   -3.3643    0.0000 C   0  0  0  0  0  0  0  0  0  0  0  0
   13.9821   -4.3945    0.0000 C   0  0  0  0  0  0  0  0  0  0  0  0
   12.7166   -5.1998    0.0000 C   0  0  0  0  0  0  0  0  0  0  0  0
   11.3215   -5.7510    0.0000 C   0  0  0  0  0  0  0  0  0  0  0  0
    9.8474   -6.0282    0.0000 C   0  0  0  0  0  0  0  0  0  0  0  0
    8.3474   -6.0214    0.0000 C   0  0  0  0  0  0  0  0  0  0  0  0
    6.8758   -5.7309    0.0000 C   0  0  0  0  0  0  0  0  0  0  0  0
    5.4858   -5.1671    0.0000 C   0  0  0  0  0  0  0  0  0  0  0  0
   16.5525   -3.6080    0.0000 C   0  0  0  0  0  0  0  0  0  0  0  0
   15.9480   -2.1464    0.0000 C   0  0  0  0  0  0  0  0  0  0  0  0
   17.3261   -2.7387    0.0000 O   0  0  0  0  0  0  0  0  0  0  0  0
   16.5773   -0.7848    0.0000 N   0  0  0  0  0  0  0  0  0  0  0  0
   16.9375    0.6713    0.0000 C   0  0  0  0  0  0  0  0  0  0  0  0
   18.3143    1.2665    0.0000 C   0  0  0  0  0  0  0  0  0  0  0  0
   19.5182    0.3717    0.0000 C   0  0  0  0  0  0  0  0  0  0  0  0
   20.8951    0.9669    0.0000 C   0  0  0  0  0  0  0  0  0  0  0  0
   22.0990    0.0721    0.0000 N   0  0  0  0  0  0  0  0  0  0  0  0
   23.4758    0.6672    0.0000 C   0  0  0  0  0  0  0  0  0  0  0  0
   24.6797   -0.2276    0.0000 N   0  0  0  0  0  0  0  0  0  0  0  0
   23.6488    2.1572    0.0000 N   0  0  0  0  0  0  0  0  0  0  0  0
   17.0156    2.1693    0.0000 C   0  0  0  0  0  0  0  0  0  0  0  0
   18.4952    2.4161    0.0000 O   0  0  0  0  0  0  0  0  0  0  0  0
   16.8089    3.6550    0.0000 N   0  0  0  0  0  0  0  0  0  0  0  0
   16.3247    5.0747    0.0000 C   0  0  0  0  0  0  0  0  0  0  0  0
   17.1612    6.3197    0.0000 C   0  0  0  0  0  0  0  0  0  0  0  0
   18.6577    6.2178    0.0000 C   0  0  0  0  0  0  0  0  0  0  0  0
   19.4942    7.4629    0.0000 C   0  0  0  0  0  0  0  0  0  0  0  0
   20.9908    7.3610    0.0000 N   0  0  0  0  0  0  0  0  0  0  0  0
   18.8342    8.8099    0.0000 O   0  0  0  0  0  0  0  0  0  0  0  0
   15.5805    6.3771    0.0000 C   0  0  0  0  0  0  0  0  0  0  0  0
   16.6918    7.3846    0.0000 O   0  0  0  0  0  0  0  0  0  0  0  0
   14.6034    7.5151    0.0000 N   0  0  0  0  0  0  0  0  0  0  0  0
   13.4285    8.4477    0.0000 C   0  0  0  0  0  0  0  0  0  0  0  0
   13.4591    9.9474    0.0000 C   0  0  0  0  0  0  0  0  0  0  0  0
   12.0984    9.1410    0.0000 C   0  0  0  0  0  0  0  0  0  0  0  0
   12.4885   10.5894    0.0000 O   0  0  0  0  0  0  0  0  0  0  0  0
   10.6611    9.5701    0.0000 N   0  0  0  0  0  0  0  0  0  0  0  0
    9.1685    9.7195    0.0000 C   0  0  0  0  0  0  0  0  0  0  0  0
    8.3834   10.9976    0.0000 C   0  0  0  0  0  0  0  0  0  0  0  0
    9.0978   12.3166    0.0000 C   0  0  0  0  0  0  0  0  0  0  0  0
    8.3127   13.5947    0.0000 C   0  0  0  0  0  0  0  0  0  0  0  0
    9.0271   14.9137    0.0000 N   0  0  0  0  0  0  0  0  0  0  0  0
    8.2420   16.1918    0.0000 C   0  0  0  0  0  0  0  0  0  0  0  0
    8.9564   17.5108    0.0000 N   0  0  0  0  0  0  0  0  0  0  0  0
    6.7426   16.1510    0.0000 N   0  0  0  0  0  0  0  0  0  0  0  0
    7.6747    9.5836    0.0000 C   0  0  0  0  0  0  0  0  0  0  0  0
    7.2198   11.0130    0.0000 O   0  0  0  0  0  0  0  0  0  0  0  0
    6.2335    9.1675    0.0000 N   0  0  0  0  0  0  0  0  0  0  0  0
    4.8972    8.4862    0.0000 C   0  0  0  0  0  0  0  0  0  0  0  0
    3.5457    9.1370    0.0000 C   0  0  0  0  0  0  0  0  0  0  0  0
    3.4336   10.6328    0.0000 C   0  0  0  0  0  0  0  0  0  0  0  0
    2.0822   11.2836    0.0000 C   0  0  0  0  0  0  0  0  0  0  0  0
    1.9700   12.7794    0.0000 N   0  0  0  0  0  0  0  0  0  0  0  0
    0.6186   13.4303    0.0000 C   0  0  0  0  0  0  0  0  0  0  0  0
    0.5065   14.9261    0.0000 N   0  0  0  0  0  0  0  0  0  0  0  0
   -0.6208   12.5853    0.0000 N   0  0  0  0  0  0  0  0  0  0  0  0
    3.7139    7.5643    0.0000 C   0  0  0  0  0  0  0  0  0  0  0  0
    2.5585    8.5209    0.0000 O   0  0  0  0  0  0  0  0  0  0  0  0
    2.7265    6.4352    0.0000 N   0  0  0  0  0  0  0  0  0  0  0  0
    1.9707    5.1395    0.0000 C   0  0  0  0  0  0  0  0  0  0  0  0
    0.4819    4.9564    0.0000 C   0  0  0  0  0  0  0  0  0  0  0  0
   -0.4211    6.1541    0.0000 C   0  0  0  0  0  0  0  0  0  0  0  0
   -1.9099    5.9709    0.0000 C   0  0  0  0  0  0  0  0  0  0  0  0
   -3.0759    6.9146    0.0000 N   0  0  0  0  0  0  0  0  0  0  0  0
   -2.4957    4.5900    0.0000 O   0  0  0  0  0  0  0  0  0  0  0  0
    1.4737    3.7242    0.0000 C   0  0  0  0  0  0  0  0  0  0  0  0
    0.0723    4.2593    0.0000 O   0  0  0  0  0  0  0  0  0  0  0  0
    1.2535    2.2405    0.0000 N   0  0  0  0  0  0  0  0  0  0  0  0
    1.3181    0.7419    0.0000 C   0  0  0  0  0  0  0  0  0  0  0  0
    1.6651   -0.7174    0.0000 C   0  0  0  0  0  0  0  0  0  0  0  0
    2.2821   -2.0847    0.0000 C   0  0  0  0  0  0  0  0  0  0  0  0
    3.1466   -3.3104    0.0000 C   0  0  0  0  0  0  0  0  0  0  0  0
    4.2276   -4.3505    0.0000 C   0  0  0  0  0  0  0  0  0  0  0  0
    0.6836   -0.7203    0.0000 C   0  0  0  0  0  0  0  0  0  0  0  0
    0.4830   -2.0724    0.0000 C   0  0  0  0  0  0  0  0  0  0  0  0
    0.0301   -3.3621    0.0000 C   0  0  0  0  0  0  0  0  0  0  0  0
   -0.6587   -4.5428    0.0000 C   0  0  0  0  0  0  0  0  0  0  0  0
    0.3085    1.9752    0.0000 C   0  0  0  0  0  0  0  0  0  0  0  0
    2.3907    2.6854    0.0000 O   0  0  0  0  0  0  0  0  0  0  0  0
   -0.2537    3.2212    0.0000 N   0  0  0  0  0  0  0  0  0  0  0  0
   -1.0416    4.3382    0.0000 C   0  0  0  0  0  0  0  0  0  0  0  0
   -0.0586    6.2245    0.0000 C   0  0  0  0  0  0  0  0  0  0  0  0
   -1.0714    7.3310    0.0000 C   0  0  0  0  0  0  0  0  0  0  0  0
   -0.6195    8.7613    0.0000 C   0  0  0  0  0  0  0  0  0  0  0  0
   -1.6323    9.8678    0.0000 N   0  0  0  0  0  0  0  0  0  0  0  0
   -1.1805   11.2981    0.0000 C   0  0  0  0  0  0  0  0  0  0  0  0
   -2.0508   12.5198    0.0000 N   0  0  0  0  0  0  0  0  0  0  0  0
    0.2338   11.7981    0.0000 N   0  0  0  0  0  0  0  0  0  0  0  0
   -2.0266    5.2860    0.0000 C   0  0  0  0  0  0  0  0  0  0  0  0
   -1.1419    7.2653    0.0000 O   0  0  0  0  0  0  0  0  0  0  0  0
   -3.1731    6.0302    0.0000 N   0  0  0  0  0  0  0  0  0  0  0  0
   -4.4398    6.5439    0.0000 C   0  0  0  0  0  0  0  0  0  0  0  0
   -4.6328    8.6622    0.0000 C   0  0  0  0  0  0  0  0  0  0  0  0
   -3.5757    9.7265    0.0000 C   0  0  0  0  0  0  0  0  0  0  0  0
   -3.9689   11.1741    0.0000 C   0  0  0  0  0  0  0  0  0  0  0  0
   -2.9119   12.2383    0.0000 N   0  0  0  0  0  0  0  0  0  0  0  0
   -3.3051   13.6859    0.0000 C   0  0  0  0  0  0  0  0  0  0  0  0
   -2.2480   14.7502    0.0000 N   0  0  0  0  0  0  0  0  0  0  0  0
   -4.7553   14.0692    0.0000 N   0  0  0  0  0  0  0  0  0  0  0  0
   -5.7809    6.8087    0.0000 C   0  0  0  0  0  0  0  0  0  0  0  0
   -5.7449    9.0048    0.0000 O   0  0  0  0  0  0  0  0  0  0  0  0
   -7.1478    6.8149    0.0000 N   0  0  0  0  0  0  0  0  0  0  0  0
   -8.4912    6.5622    0.0000 C   0  0  0  0  0  0  0  0  0  0  0  0
   -9.7987    8.2400    0.0000 C   0  0  0  0  0  0  0  0  0  0  0  0
   -9.4849    9.7068    0.0000 C   0  0  0  0  0  0  0  0  0  0  0  0
  -10.5982   10.7119    0.0000 C   0  0  0  0  0  0  0  0  0  0  0  0
  -10.2844   12.1787    0.0000 N   0  0  0  0  0  0  0  0  0  0  0  0
  -11.3978   13.1839    0.0000 C   0  0  0  0  0  0  0  0  0  0  0  0
  -11.0839   14.6507    0.0000 N   0  0  0  0  0  0  0  0  0  0  0  0
  -12.8250   12.7223    0.0000 N   0  0  0  0  0  0  0  0  0  0  0  0
   -9.7625    6.0599    0.0000 C   0  0  0  0  0  0  0  0  0  0  0  0
  -10.9195    7.9269    0.0000 O   0  0  0  0  0  0  0  0  0  0  0  0
  -10.9157    5.3261    0.0000 N   0  0  0  0  0  0  0  0  0  0  0  0
  -11.9092    4.3873    0.0000 C   0  0  0  0  0  0  0  0  0  0  0  0
  -13.9163    5.0918    0.0000 C   0  0  0  0  0  0  0  0  0  0  0  0
  -14.4453    6.4954    0.0000 C   0  0  0  0  0  0  0  0  0  0  0  0
  -13.6206    7.7484    0.0000 C   0  0  0  0  0  0  0  0  0  0  0  0
  -14.5575    8.9199    0.0000 N   0  0  0  0  0  0  0  0  0  0  0  0
  -15.9611    8.3909    0.0000 C   0  0  0  0  0  0  0  0  0  0  0  0
  -17.2934    9.0800    0.0000 C   0  0  0  0  0  0  0  0  0  0  0  0
  -18.5564    8.2708    0.0000 C   0  0  0  0  0  0  0  0  0  0  0  0
  -18.4870    6.7724    0.0000 C   0  0  0  0  0  0  0  0  0  0  0  0
  -17.1547    6.0832    0.0000 C   0  0  0  0  0  0  0  0  0  0  0  0
  -15.8917    6.8925    0.0000 C   0  0  0  0  0  0  0  0  0  0  0  0
  -12.7072    3.2775    0.0000 C   0  0  0  0  0  0  0  0  0  0  0  0
  -14.6899    4.2225    0.0000 O   0  0  0  0  0  0  0  0  0  0  0  0
  -13.2806    2.0366    0.0000 N   0  0  0  0  0  0  0  0  0  0  0  0
  -13.6089    0.7097    0.0000 C   0  0  0  0  0  0  0  0  0  0  0  0
  -15.6782    0.2173    0.0000 C   0  0  0  0  0  0  0  0  0  0  0  0
  -16.8820    1.1121    0.0000 C   0  0  0  0  0  0  0  0  0  0  0  0
  -18.2589    0.5169    0.0000 C   0  0  0  0  0  0  0  0  0  0  0  0
  -19.4628    1.4117    0.0000 N   0  0  0  0  0  0  0  0  0  0  0  0
  -20.8396    0.8165    0.0000 C   0  0  0  0  0  0  0  0  0  0  0  0
  -22.0435    1.7114    0.0000 N   0  0  0  0  0  0  0  0  0  0  0  0
  -21.0126   -0.6734    0.0000 N   0  0  0  0  0  0  0  0  0  0  0  0
  -13.6801   -0.6554    0.0000 C   0  0  0  0  0  0  0  0  0  0  0  0
  -15.8590   -0.9323    0.0000 O   0  0  0  0  0  0  0  0  0  0  0  0
  -13.4917   -2.0092    0.0000 N   0  0  0  0  0  0  0  0  0  0  0  0
  -13.0504   -3.3030    0.0000 C   0  0  0  0  0  0  0  0  0  0  0  0
  -14.5250   -4.8360    0.0000 C   0  0  0  0  0  0  0  0  0  0  0  0
  -16.0215   -4.7341    0.0000 C   0  0  0  0  0  0  0  0  0  0  0  0
  -16.8580   -5.9792    0.0000 C   0  0  0  0  0  0  0  0  0  0  0  0
  -18.3546   -5.8773    0.0000 O   0  0  0  0  0  0  0  0  0  0  0  0
  -16.1980   -7.3261    0.0000 O   0  0  0  0  0  0  0  0  0  0  0  0
  -12.3723   -4.4898    0.0000 C   0  0  0  0  0  0  0  0  0  0  0  0
  -14.0556   -5.9008    0.0000 O   0  0  0  0  0  0  0  0  0  0  0  0
  -11.4819   -5.5269    0.0000 N   0  0  0  0  0  0  0  0  0  0  0  0
  -10.4112   -6.3767    0.0000 C   0  0  0  0  0  0  0  0  0  0  0  0
   -9.1991   -7.0086    0.0000 C   0  0  0  0  0  0  0  0  0  0  0  0
   -7.8893   -7.3996    0.0000 C   0  0  0  0  0  0  0  0  0  0  0  0
   -6.5292   -7.5357    0.0000 C   0  0  0  0  0  0  0  0  0  0  0  0
   -5.1679   -7.4119    0.0000 C   0  0  0  0  0  0  0  0  0  0  0  0
   -3.8546   -7.0327    0.0000 C   0  0  0  0  0  0  0  0  0  0  0  0
   -2.6368   -6.4119    0.0000 C   0  0  0  0  0  0  0  0  0  0  0  0
   -1.5585   -5.5718    0.0000 C   0  0  0  0  0  0  0  0  0  0  0  0
  -12.1496   -7.6025    0.0000 C   0  0  0  0  0  0  0  0  0  0  0  0
  -10.8229   -8.4636    0.0000 C   0  0  0  0  0  0  0  0  0  0  0  0
   -9.7654   -9.5274    0.0000 O   0  0  0  0  0  0  0  0  0  0  0  0
  -12.1370   -9.1870    0.0000 N   0  0  0  0  0  0  0  0  0  0  0  0
  -12.1675  -10.6866    0.0000 C   0  0  0  0  0  0  0  0  0  0  0  0
  -11.6833  -12.1064    0.0000 C   0  0  0  0  0  0  0  0  0  0  0  0
  -12.6707  -13.2355    0.0000 C   0  0  0  0  0  0  0  0  0  0  0  0
  -12.1865  -14.6552    0.0000 C   0  0  0  0  0  0  0  0  0  0  0  0
  -13.0289  -15.8963    0.0000 N   0  0  0  0  0  0  0  0  0  0  0  0
  -10.7150  -14.9458    0.0000 O   0  0  0  0  0  0  0  0  0  0  0  0
  -13.4816  -11.4100    0.0000 C   0  0  0  0  0  0  0  0  0  0  0  0
  -14.7651  -10.6337    0.0000 O   0  0  0  0  0  0  0  0  0  0  0  0
  -13.5122  -12.9097    0.0000 N   0  0  0  0  0  0  0  0  0  0  0  0
  -14.8262  -13.6331    0.0000 C   0  0  0  0  0  0  0  0  0  0  0  0
  -16.3084  -13.8634    0.0000 C   0  0  0  0  0  0  0  0  0  0  0  0
  -17.2490  -12.6949    0.0000 C   0  0  0  0  0  0  0  0  0  0  0  0
  -18.7312  -12.9252    0.0000 C   0  0  0  0  0  0  0  0  0  0  0  0
  -19.6718  -11.7567    0.0000 N   0  0  0  0  0  0  0  0  0  0  0  0
  -21.1540  -11.9870    0.0000 C   0  0  0  0  0  0  0  0  0  0  0  0
  -22.0945  -10.8185    0.0000 N   0  0  0  0  0  0  0  0  0  0  0  0
  -21.6956  -13.3858    0.0000 N   0  0  0  0  0  0  0  0  0  0  0  0
  -14.8568  -15.1328    0.0000 C   0  0  0  0  0  0  0  0  0  0  0  0
  -16.0729  -16.0109    0.0000 O   0  0  0  0  0  0  0  0  0  0  0  0
  -13.6775  -16.0597    0.0000 O   0  0  0  0  0  0  0  0  0  0  0  0
   15.2516  -12.5500    0.0000 H   0  0  0  0  0  0  0  0  0  0  0  0
   10.8365  -11.7194    0.0000 H   0  0  0  0  0  0  0  0  0  0  0  0
    8.7911  -13.9140    0.0000 H   0  0  0  0  0  0  0  0  0  0  0  0
   14.6757  -14.8986    0.0000 H   0  0  0  0  0  0  0  0  0  0  0  0
   14.8046  -22.0608    0.0000 H   0  0  0  0  0  0  0  0  0  0  0  0
    9.6092  -21.9714    0.0000 H   0  0  0  0  0  0  0  0  0  0  0  0
    9.6608  -18.9718    0.0000 H   0  0  0  0  0  0  0  0  0  0  0  0
   10.8693  -24.2434    0.0000 H   0  0  0  0  0  0  0  0  0  0  0  0
   12.3360  -14.5172    0.0000 H   0  0  0  0  0  0  0  0  0  0  0  0
   15.1421  -13.0764    0.0000 H   0  0  0  0  0  0  0  0  0  0  0  0
   17.4797  -17.6062    0.0000 H   0  0  0  0  0  0  0  0  0  0  0  0
   18.8173  -15.3789    0.0000 H   0  0  0  0  0  0  0  0  0  0  0  0
   15.8053  -10.1990    0.0000 H   0  0  0  0  0  0  0  0  0  0  0  0
   12.5684   -9.1089    0.0000 H   0  0  0  0  0  0  0  0  0  0  0  0
   13.0017   -7.2299    0.0000 H   0  0  0  0  0  0  0  0  0  0  0  0
   15.8305   -8.5280    0.0000 H   0  0  0  0  0  0  0  0  0  0  0  0
   16.2638   -6.6490    0.0000 H   0  0  0  0  0  0  0  0  0  0  0  0
   16.9209   -5.3114    0.0000 H   0  0  0  0  0  0  0  0  0  0  0  0
   15.2218   -5.2390    0.0000 H   0  0  0  0  0  0  0  0  0  0  0  0
   13.9586   -5.8944    0.0000 H   0  0  0  0  0  0  0  0  0  0  0  0
   13.6365   -6.3846    0.0000 H   0  0  0  0  0  0  0  0  0  0  0  0
   12.5909   -6.6945    0.0000 H   0  0  0  0  0  0  0  0  0  0  0  0
   12.4349   -6.7562    0.0000 H   0  0  0  0  0  0  0  0  0  0  0  0
   11.0943   -7.2337    0.0000 H   0  0  0  0  0  0  0  0  0  0  0  0
   10.5976   -7.3271    0.0000 H   0  0  0  0  0  0  0  0  0  0  0  0
    9.3437   -7.4411    0.0000 H   0  0  0  0  0  0  0  0  0  0  0  0
    8.8383   -7.4388    0.0000 H   0  0  0  0  0  0  0  0  0  0  0  0
    7.5854   -7.3135    0.0000 H   0  0  0  0  0  0  0  0  0  0  0  0
    7.0896   -7.2156    0.0000 H   0  0  0  0  0  0  0  0  0  0  0  0
    5.7534   -6.7260    0.0000 H   0  0  0  0  0  0  0  0  0  0  0  0
    4.7924   -6.4972    0.0000 H   0  0  0  0  0  0  0  0  0  0  0  0
   17.2486   -4.9367    0.0000 H   0  0  0  0  0  0  0  0  0  0  0  0
   18.0494   -3.5126    0.0000 H   0  0  0  0  0  0  0  0  0  0  0  0
   16.8989   -2.1486    0.0000 H   0  0  0  0  0  0  0  0  0  0  0  0
   17.9214   -1.4506    0.0000 H   0  0  0  0  0  0  0  0  0  0  0  0
   17.9555   -0.4304    0.0000 H   0  0  0  0  0  0  0  0  0  0  0  0
   19.4046    2.2967    0.0000 H   0  0  0  0  0  0  0  0  0  0  0  0
   17.8167    2.6815    0.0000 H   0  0  0  0  0  0  0  0  0  0  0  0
   20.3434   -0.8809    0.0000 H   0  0  0  0  0  0  0  0  0  0  0  0
   18.7096   -0.8917    0.0000 H   0  0  0  0  0  0  0  0  0  0  0  0
   21.9854    1.9971    0.0000 H   0  0  0  0  0  0  0  0  0  0  0  0
   20.2287    2.3107    0.0000 H   0  0  0  0  0  0  0  0  0  0  0  0
   21.9260   -1.4179    0.0000 H   0  0  0  0  0  0  0  0  0  0  0  0
   26.0566    0.3676    0.0000 H   0  0  0  0  0  0  0  0  0  0  0  0
   24.5067   -1.7176    0.0000 H   0  0  0  0  0  0  0  0  0  0  0  0
   25.0257    2.7524    0.0000 H   0  0  0  0  0  0  0  0  0  0  0  0
   22.4449    3.0520    0.0000 H   0  0  0  0  0  0  0  0  0  0  0  0
   18.2996    3.8215    0.0000 H   0  0  0  0  0  0  0  0  0  0  0  0
   17.7767    4.6982    0.0000 H   0  0  0  0  0  0  0  0  0  0  0  0
   17.6962    7.7211    0.0000 H   0  0  0  0  0  0  0  0  0  0  0  0
   15.9775    7.2411    0.0000 H   0  0  0  0  0  0  0  0  0  0  0  0
   20.0291    5.6102    0.0000 H   0  0  0  0  0  0  0  0  0  0  0  0
   18.6605    4.7179    0.0000 H   0  0  0  0  0  0  0  0  0  0  0  0
   21.8273    8.6061    0.0000 H   0  0  0  0  0  0  0  0  0  0  0  0
   21.6508    6.0140    0.0000 H   0  0  0  0  0  0  0  0  0  0  0  0
   15.6434    8.5960    0.0000 H   0  0  0  0  0  0  0  0  0  0  0  0
   14.7858    9.0862    0.0000 H   0  0  0  0  0  0  0  0  0  0  0  0
   14.7731   10.6707    0.0000 H   0  0  0  0  0  0  0  0  0  0  0  0
   13.1516   11.4155    0.0000 H   0  0  0  0  0  0  0  0  0  0  0  0
   11.9652   10.0826    0.0000 H   0  0  0  0  0  0  0  0  0  0  0  0
   11.1288   10.9953    0.0000 H   0  0  0  0  0  0  0  0  0  0  0  0
   10.1141   10.8839    0.0000 H   0  0  0  0  0  0  0  0  0  0  0  0
    7.2086   11.9302    0.0000 H   0  0  0  0  0  0  0  0  0  0  0  0
    7.0536   10.3037    0.0000 H   0  0  0  0  0  0  0  0  0  0  0  0
   10.2202   13.3117    0.0000 H   0  0  0  0  0  0  0  0  0  0  0  0
   10.4634   11.6960    0.0000 H   0  0  0  0  0  0  0  0  0  0  0  0
    7.1379   14.5273    0.0000 H   0  0  0  0  0  0  0  0  0  0  0  0
    7.0774   12.7439    0.0000 H   0  0  0  0  0  0  0  0  0  0  0  0
   10.5266   14.9545    0.0000 H   0  0  0  0  0  0  0  0  0  0  0  0
    8.1713   18.7890    0.0000 H   0  0  0  0  0  0  0  0  0  0  0  0
   10.4559   17.5516    0.0000 H   0  0  0  0  0  0  0  0  0  0  0  0
    5.9575   17.4292    0.0000 H   0  0  0  0  0  0  0  0  0  0  0  0
    6.0282   14.8321    0.0000 H   0  0  0  0  0  0  0  0  0  0  0  0
    5.8565   10.6194    0.0000 H   0  0  0  0  0  0  0  0  0  0  0  0
    5.0631    9.9770    0.0000 H   0  0  0  0  0  0  0  0  0  0  0  0
    2.0532    9.2864    0.0000 H   0  0  0  0  0  0  0  0  0  0  0  0
    2.8022    7.8343    0.0000 H   0  0  0  0  0  0  0  0  0  0  0  0
    3.8399   12.0768    0.0000 H   0  0  0  0  0  0  0  0  0  0  0  0
    4.9179   10.8491    0.0000 H   0  0  0  0  0  0  0  0  0  0  0  0
    0.6189   11.6138    0.0000 H   0  0  0  0  0  0  0  0  0  0  0  0
    1.6759    9.8397    0.0000 H   0  0  0  0  0  0  0  0  0  0  0  0
    3.2094   13.6244    0.0000 H   0  0  0  0  0  0  0  0  0  0  0  0
   -0.8450   15.5769    0.0000 H   0  0  0  0  0  0  0  0  0  0  0  0
    1.7458   15.7711    0.0000 H   0  0  0  0  0  0  0  0  0  0  0  0
   -1.7746   13.5437    0.0000 H   0  0  0  0  0  0  0  0  0  0  0  0
   -0.1500   11.1610    0.0000 H   0  0  0  0  0  0  0  0  0  0  0  0
    1.7567    7.5794    0.0000 H   0  0  0  0  0  0  0  0  0  0  0  0
    1.4731    6.5546    0.0000 H   0  0  0  0  0  0  0  0  0  0  0  0
   -1.0099    4.7993    0.0000 H   0  0  0  0  0  0  0  0  0  0  0  0
    0.1959    3.4839    0.0000 H   0  0  0  0  0  0  0  0  0  0  0  0
   -1.0316    7.5242    0.0000 H   0  0  0  0  0  0  0  0  0  0  0  0
    0.5822    7.2691    0.0000 H   0  0  0  0  0  0  0  0  0  0  0  0
   -4.2481    7.2800    0.0000 H   0  0  0  0  0  0  0  0  0  0  0  0
   -2.4328    8.6408    0.0000 H   0  0  0  0  0  0  0  0  0  0  0  0
   -0.2445    2.3186    0.0000 H   0  0  0  0  0  0  0  0  0  0  0  0
    0.8625   -1.9846    0.0000 H   0  0  0  0  0  0  0  0  0  0  0  0
    0.2035   -0.3803    0.0000 H   0  0  0  0  0  0  0  0  0  0  0  0
    1.7338   -3.4809    0.0000 H   0  0  0  0  0  0  0  0  0  0  0  0
    0.8632   -2.5712    0.0000 H   0  0  0  0  0  0  0  0  0  0  0  0
    2.6948   -4.7408    0.0000 H   0  0  0  0  0  0  0  0  0  0  0  0
    1.8455   -4.0567    0.0000 H   0  0  0  0  0  0  0  0  0  0  0  0
    3.2950   -5.5253    0.0000 H   0  0  0  0  0  0  0  0  0  0  0  0
    2.6968   -0.0334    0.0000 H   0  0  0  0  0  0  0  0  0  0  0  0
    2.5008   -1.7566    0.0000 H   0  0  0  0  0  0  0  0  0  0  0  0
    2.6603   -2.3211    0.0000 H   0  0  0  0  0  0  0  0  0  0  0  0
    2.0712   -3.4339    0.0000 H   0  0  0  0  0  0  0  0  0  0  0  0
    2.1210   -4.0184    0.0000 H   0  0  0  0  0  0  0  0  0  0  0  0
    1.4907   -4.9083    0.0000 H   0  0  0  0  0  0  0  0  0  0  0  0
    1.1276   -5.8270    0.0000 H   0  0  0  0  0  0  0  0  0  0  0  0
    1.4377    4.6056    0.0000 H   0  0  0  0  0  0  0  0  0  0  0  0
    0.9326    5.2035    0.0000 H   0  0  0  0  0  0  0  0  0  0  0  0
    0.9934    7.2938    0.0000 H   0  0  0  0  0  0  0  0  0  0  0  0
    1.3998    5.8737    0.0000 H   0  0  0  0  0  0  0  0  0  0  0  0
   -2.1942    8.3256    0.0000 H   0  0  0  0  0  0  0  0  0  0  0  0
   -2.4367    6.7099    0.0000 H   0  0  0  0  0  0  0  0  0  0  0  0
    0.2943    9.9509    0.0000 H   0  0  0  0  0  0  0  0  0  0  0  0
    0.7852    8.2353    0.0000 H   0  0  0  0  0  0  0  0  0  0  0  0
   -3.1318    9.9080    0.0000 H   0  0  0  0  0  0  0  0  0  0  0  0
   -1.9040   13.8629    0.0000 H   0  0  0  0  0  0  0  0  0  0  0  0
   -3.7163   12.4827    0.0000 H   0  0  0  0  0  0  0  0  0  0  0  0
    0.4176   13.1366    0.0000 H   0  0  0  0  0  0  0  0  0  0  0  0
    1.1327   10.3955    0.0000 H   0  0  0  0  0  0  0  0  0  0  0  0
   -1.9993    7.8866    0.0000 H   0  0  0  0  0  0  0  0  0  0  0  0
   -3.1172    8.2098    0.0000 H   0  0  0  0  0  0  0  0  0  0  0  0
   -5.4973    9.8880    0.0000 H   0  0  0  0  0  0  0  0  0  0  0  0
   -6.1042    8.3711    0.0000 H   0  0  0  0  0  0  0  0  0  0  0  0
   -2.4133   10.6745    0.0000 H   0  0  0  0  0  0  0  0  0  0  0  0
   -2.4403    8.7463    0.0000 H   0  0  0  0  0  0  0  0  0  0  0  0
   -4.8335   12.3998    0.0000 H   0  0  0  0  0  0  0  0  0  0  0  0
   -5.3939   10.7057    0.0000 H   0  0  0  0  0  0  0  0  0  0  0  0
   -1.4120   12.2174    0.0000 H   0  0  0  0  0  0  0  0  0  0  0  0
   -2.6412   16.1977    0.0000 H   0  0  0  0  0  0  0  0  0  0  0  0
   -0.7978   14.3669    0.0000 H   0  0  0  0  0  0  0  0  0  0  0  0
   -5.1484   15.5167    0.0000 H   0  0  0  0  0  0  0  0  0  0  0  0
   -5.8123   13.0049    0.0000 H   0  0  0  0  0  0  0  0  0  0  0  0
   -7.1639    9.0112    0.0000 H   0  0  0  0  0  0  0  0  0  0  0  0
   -8.1061    8.6184    0.0000 H   0  0  0  0  0  0  0  0  0  0  0  0
  -11.1887    8.8037    0.0000 H   0  0  0  0  0  0  0  0  0  0  0  0
  -10.8792    7.1995    0.0000 H   0  0  0  0  0  0  0  0  0  0  0  0
   -8.6883   10.9778    0.0000 H   0  0  0  0  0  0  0  0  0  0  0  0
   -7.9997    9.4961    0.0000 H   0  0  0  0  0  0  0  0  0  0  0  0
  -11.9882   11.2757    0.0000 H   0  0  0  0  0  0  0  0  0  0  0  0
  -11.5438    9.5475    0.0000 H   0  0  0  0  0  0  0  0  0  0  0  0
   -8.8572   12.6404    0.0000 H   0  0  0  0  0  0  0  0  0  0  0  0
  -12.1973   15.6559    0.0000 H   0  0  0  0  0  0  0  0  0  0  0  0
   -9.6567   15.1123    0.0000 H   0  0  0  0  0  0  0  0  0  0  0  0
  -13.9383   13.7275    0.0000 H   0  0  0  0  0  0  0  0  0  0  0  0
  -13.1388   11.2555    0.0000 H   0  0  0  0  0  0  0  0  0  0  0  0
  -12.1167    7.1651    0.0000 H   0  0  0  0  0  0  0  0  0  0  0  0
  -12.8751    6.2825    0.0000 H   0  0  0  0  0  0  0  0  0  0  0  0
  -15.4132    4.9963    0.0000 H   0  0  0  0  0  0  0  0  0  0  0  0
  -14.2627    3.6323    0.0000 H   0  0  0  0  0  0  0  0  0  0  0  0
  -12.1419    7.9999    0.0000 H   0  0  0  0  0  0  0  0  0  0  0  0
  -14.1604   10.3664    0.0000 H   0  0  0  0  0  0  0  0  0  0  0  0
  -17.3628   10.5784    0.0000 H   0  0  0  0  0  0  0  0  0  0  0  0
  -19.8887    8.9599    0.0000 H   0  0  0  0  0  0  0  0  0  0  0  0
  -19.7500    5.9631    0.0000 H   0  0  0  0  0  0  0  0  0  0  0  0
  -17.0854    4.5848    0.0000 H   0  0  0  0  0  0  0  0  0  0  0  0
  -15.2852    2.9344    0.0000 H   0  0  0  0  0  0  0  0  0  0  0  0
  -15.3193    1.9141    0.0000 H   0  0  0  0  0  0  0  0  0  0  0  0
  -16.7684   -0.8129    0.0000 H   0  0  0  0  0  0  0  0  0  0  0  0
  -15.1806   -1.1978    0.0000 H   0  0  0  0  0  0  0  0  0  0  0  0
  -17.7073    2.3647    0.0000 H   0  0  0  0  0  0  0  0  0  0  0  0
  -16.0734    2.3755    0.0000 H   0  0  0  0  0  0  0  0  0  0  0  0
  -19.3492   -0.5133    0.0000 H   0  0  0  0  0  0  0  0  0  0  0  0
  -17.5925   -0.8269    0.0000 H   0  0  0  0  0  0  0  0  0  0  0  0
  -19.2898    2.9017    0.0000 H   0  0  0  0  0  0  0  0  0  0  0  0
  -23.4204    1.1162    0.0000 H   0  0  0  0  0  0  0  0  0  0  0  0
  -21.8705    3.2013    0.0000 H   0  0  0  0  0  0  0  0  0  0  0  0
  -22.3895   -1.2686    0.0000 H   0  0  0  0  0  0  0  0  0  0  0  0
  -19.8088   -1.5683    0.0000 H   0  0  0  0  0  0  0  0  0  0  0  0
  -15.6634   -2.3378    0.0000 H   0  0  0  0  0  0  0  0  0  0  0  0
  -15.1405   -3.2145    0.0000 H   0  0  0  0  0  0  0  0  0  0  0  0
  -15.0600   -6.2373    0.0000 H   0  0  0  0  0  0  0  0  0  0  0  0
  -13.3413   -5.7574    0.0000 H   0  0  0  0  0  0  0  0  0  0  0  0
  -17.3930   -4.1265    0.0000 H   0  0  0  0  0  0  0  0  0  0  0  0
  -16.0244   -3.2341    0.0000 H   0  0  0  0  0  0  0  0  0  0  0  0
  -13.1312   -6.9774    0.0000 H   0  0  0  0  0  0  0  0  0  0  0  0
   -9.2084   -9.1356    0.0000 H   0  0  0  0  0  0  0  0  0  0  0  0
  -10.4242   -8.8081    0.0000 H   0  0  0  0  0  0  0  0  0  0  0  0
   -7.6709   -9.5440    0.0000 H   0  0  0  0  0  0  0  0  0  0  0  0
   -8.7517   -9.3985    0.0000 H   0  0  0  0  0  0  0  0  0  0  0  0
   -5.9089   -9.6000    0.0000 H   0  0  0  0  0  0  0  0  0  0  0  0
   -7.1680   -9.5943    0.0000 H   0  0  0  0  0  0  0  0  0  0  0  0
   -4.1681   -9.3215    0.0000 H   0  0  0  0  0  0  0  0  0  0  0  0
   -5.4056   -9.5542    0.0000 H   0  0  0  0  0  0  0  0  0  0  0  0
   -2.5115   -8.7186    0.0000 H   0  0  0  0  0  0  0  0  0  0  0  0
   -3.6826   -9.1813    0.0000 H   0  0  0  0  0  0  0  0  0  0  0  0
   -0.9095   -7.6533    0.0000 H   0  0  0  0  0  0  0  0  0  0  0  0
   -2.0613   -8.4891    0.0000 H   0  0  0  0  0  0  0  0  0  0  0  0
   -0.0475   -7.1708    0.0000 H   0  0  0  0  0  0  0  0  0  0  0  0
  -12.6332   -9.0224    0.0000 H   0  0  0  0  0  0  0  0  0  0  0  0
  -13.6434   -7.7383    0.0000 H   0  0  0  0  0  0  0  0  0  0  0  0
  -12.8814   -6.2931    0.0000 H   0  0  0  0  0  0  0  0  0  0  0  0
  -13.5055   -8.5729    0.0000 H   0  0  0  0  0  0  0  0  0  0  0  0
  -10.6853  -10.4563    0.0000 H   0  0  0  0  0  0  0  0  0  0  0  0
  -10.7428  -13.2748    0.0000 H   0  0  0  0  0  0  0  0  0  0  0  0
  -10.3693  -11.3830    0.0000 H   0  0  0  0  0  0  0  0  0  0  0  0
  -13.9848  -13.9589    0.0000 H   0  0  0  0  0  0  0  0  0  0  0  0
  -14.0498  -12.6455    0.0000 H   0  0  0  0  0  0  0  0  0  0  0  0
  -12.6898  -17.2041    0.0000 H   0  0  0  0  0  0  0  0  0  0  0  0
  -14.6949  -15.8970    0.0000 H   0  0  0  0  0  0  0  0  0  0  0  0
  -12.4547  -13.9735    0.0000 H   0  0  0  0  0  0  0  0  0  0  0  0
  -15.1337  -12.1649    0.0000 H   0  0  0  0  0  0  0  0  0  0  0  0
  -17.5245  -14.7415    0.0000 H   0  0  0  0  0  0  0  0  0  0  0  0
  -16.0009  -15.3315    0.0000 H   0  0  0  0  0  0  0  0  0  0  0  0
  -17.7332  -11.2752    0.0000 H   0  0  0  0  0  0  0  0  0  0  0  0
  -16.0329  -11.8167    0.0000 H   0  0  0  0  0  0  0  0  0  0  0  0
  -20.0453  -13.6486    0.0000 H   0  0  0  0  0  0  0  0  0  0  0  0
  -18.4237  -14.3933    0.0000 H   0  0  0  0  0  0  0  0  0  0  0  0
  -19.1301  -10.3579    0.0000 H   0  0  0  0  0  0  0  0  0  0  0  0
  -23.5768  -11.0489    0.0000 H   0  0  0  0  0  0  0  0  0  0  0  0
  -21.5529   -9.4198    0.0000 H   0  0  0  0  0  0  0  0  0  0  0  0
  -23.1778  -13.6161    0.0000 H   0  0  0  0  0  0  0  0  0  0  0  0
  -20.7551  -14.5543    0.0000 H   0  0  0  0  0  0  0  0  0  0  0  0
  1  2  1  0
  2  3  1  0
  3  4  2  0
  4  5  1  0
  5  6  2  0
  6  7  1  0
  7  8  2  0
  7  9  1  0
  9 10  1  0
 10 11  1  0
 11 12  2  0
  9 13  1  0
 13 14  1  0
 14 15  2  0
 15 16  1  0
 16 17  2  0
 17 18  1  0
 16 19  1  0
 14 20  1  0
 20 21  1  0
 21 22  2  0
 22 23  1  0
 23 24  2  0
 24 25  1  0
 25 26  2  0
 25 27  1  0
  1 28  2  0
  1 29  1  0
 29 30  1  0
 30 31  1  0
 31 32  1  0
 32 33  2  0
 32 34  1  0
 35 34  1  1
 35 36  1  0
 36 37  1  0
 37 38  1  0
 38 39  1  0
 39 40  1  0
 40 41  1  0
 41 42  1  0
 35 43  1  0
 35 44  1  0
 44 45  2  0
 44 46  1  0
 46 47  1  0
 47 48  1  0
 48 49  1  0
 49 50  1  0
 50 51  1  0
 51 52  1  0
 52 53  2  3
 52 54  1  0
 47 55  1  0
 55 56  2  0
 55 57  1  0
 57 58  1  0
 58 59  1  0
 59 60  1  0
 60 61  1  0
 61 62  1  0
 61 63  2  0
 58 64  1  0
 64 65  2  0
 64 66  1  0
 66 67  1  0
 67 68  1  0
 67 69  1  0
 69 70  2  0
 69 71  1  0
 71 72  1  0
 72 73  1  0
 73 74  1  0
 74 75  1  0
 75 76  1  0
 76 77  1  0
 77 78  2  3
 77 79  1  0
 72 80  1  0
 80 81  2  0
 80 82  1  0
 82 83  1  0
 83 84  1  0
 84 85  1  0
 85 86  1  0
 86 87  1  0
 87 88  1  0
 88 89  2  3
 88 90  1  0
 83 91  1  0
 91 92  2  0
 91 93  1  0
 93 94  1  0
 94 95  1  0
 95 96  1  0
 96 97  1  0
 97 98  1  0
 97 99  2  0
 94100  1  0
100101  2  0
100102  1  0
102103  1  0
103104  1  0
104105  1  0
105106  1  0
106107  1  0
103108  1  0
108109  1  0
109110  1  0
110111  1  0
103112  1  0
112113  2  0
112114  1  0
114115  1  0
115116  1  0
116117  1  0
117118  1  0
118119  1  0
119120  1  0
120121  2  3
120122  1  0
115123  1  0
123124  2  0
123125  1  0
125126  1  0
126127  1  0
127128  1  0
128129  1  0
129130  1  0
130131  1  0
131132  2  3
131133  1  0
126134  1  0
134135  2  0
134136  1  0
136137  1  0
137138  1  0
138139  1  0
139140  1  0
140141  1  0
141142  1  0
142143  2  3
142144  1  0
137145  1  0
145146  2  0
145147  1  0
147148  1  0
148149  1  0
149150  1  0
150151  2  0
151152  1  0
152153  1  0
153154  2  0
154155  1  0
155156  2  0
156157  1  0
157158  2  0
148159  1  0
159160  2  0
159161  1  0
161162  1  0
162163  1  0
163164  1  0
164165  1  0
165166  1  0
166167  1  0
167168  2  3
167169  1  0
162170  1  0
170171  2  0
170172  1  0
172173  1  0
173174  1  0
174175  1  0
175176  1  0
176177  2  0
176178  1  0
173179  1  0
179180  2  0
179181  1  0
181182  1  0
182183  1  0
183184  1  0
184185  1  0
185186  1  0
186187  1  0
187188  1  0
188189  1  0
182190  1  0
182191  1  1
191192  2  0
191193  1  0
193194  1  0
194195  1  0
195196  1  0
196197  1  0
197198  1  0
197199  2  0
194200  1  0
200201  2  0
200202  1  0
202203  1  0
203204  1  0
204205  1  0
205206  1  0
206207  1  0
207208  1  0
208209  2  3
208210  1  0
203211  1  0
211212  2  0
211213  1  0
  8  3  1  0
158150  1  0
 11  6  1  0
158153  1  0
 18 13  2  0
 42107  2  0
 22  9  1  0
111189  2  0
 26 21  1  0
  2214  1  0
  4215  1  0
  5216  1  0
  8217  1  0
 15218  1  0
 17219  1  0
 18220  1  0
 19221  1  0
 23222  1  0
 24223  1  0
 26224  1  0
 27225  1  0
 29226  1  0
 30227  1  0
 30228  1  0
 31229  1  0
 31230  1  0
 34231  1  0
 36232  1  0
 36233  1  0
 37234  1  0
 37235  1  0
 38236  1  0
 38237  1  0
 39238  1  0
 39239  1  0
 40240  1  0
 40241  1  0
 41242  1  0
 41243  1  0
 42244  1  0
 43245  1  0
 43246  1  0
 43247  1  0
 46248  1  0
 47249  1  6
 48250  1  0
 48251  1  0
 49252  1  0
 49253  1  0
 50254  1  0
 50255  1  0
 51256  1  0
 53257  1  0
 53258  1  0
 54259  1  0
 54260  1  0
 57261  1  0
 58262  1  6
 59263  1  0
 59264  1  0
 60265  1  0
 60266  1  0
 62267  1  0
 62268  1  0
 66269  1  0
 67270  1  6
 68271  1  0
 68272  1  0
 68273  1  0
 71274  1  0
 72275  1  6
 73276  1  0
 73277  1  0
 74278  1  0
 74279  1  0
 75280  1  0
 75281  1  0
 76282  1  0
 78283  1  0
 78284  1  0
 79285  1  0
 79286  1  0
 82287  1  0
 83288  1  6
 84289  1  0
 84290  1  0
 85291  1  0
 85292  1  0
 86293  1  0
 86294  1  0
 87295  1  0
 89296  1  0
 89297  1  0
 90298  1  0
 90299  1  0
 93300  1  0
 94301  1  6
 95302  1  0
 95303  1  0
 96304  1  0
 96305  1  0
 98306  1  0
 98307  1  0
102308  1  0
104309  1  0
104310  1  0
105311  1  0
105312  1  0
106313  1  0
106314  1  0
107315  1  0
108316  1  0
108317  1  0
109318  1  0
109319  1  0
110320  1  0
110321  1  0
111322  1  0
114323  1  0
115324  1  6
116325  1  0
116326  1  0
117327  1  0
117328  1  0
118329  1  0
118330  1  0
119331  1  0
121332  1  0
121333  1  0
122334  1  0
122335  1  0
125336  1  0
126337  1  6
127338  1  0
127339  1  0
128340  1  0
128341  1  0
129342  1  0
129343  1  0
130344  1  0
132345  1  0
132346  1  0
133347  1  0
133348  1  0
136349  1  0
137350  1  6
138351  1  0
138352  1  0
139353  1  0
139354  1  0
140355  1  0
140356  1  0
141357  1  0
143358  1  0
143359  1  0
144360  1  0
144361  1  0
147362  1  0
148363  1  6
149364  1  0
149365  1  0
151366  1  0
152367  1  0
154368  1  0
155369  1  0
156370  1  0
157371  1  0
161372  1  0
162373  1  6
163374  1  0
163375  1  0
164376  1  0
164377  1  0
165378  1  0
165379  1  0
166380  1  0
168381  1  0
168382  1  0
169383  1  0
169384  1  0
172385  1  0
173386  1  6
174387  1  0
174388  1  0
175389  1  0
175390  1  0
181391  1  0
183392  1  0
183393  1  0
184394  1  0
184395  1  0
185396  1  0
185397  1  0
186398  1  0
186399  1  0
187400  1  0
187401  1  0
188402  1  0
188403  1  0
189404  1  0
190405  1  0
190406  1  0
190407  1  0
193408  1  0
194409  1  1
195410  1  0
195411  1  0
196412  1  0
196413  1  0
198414  1  0
198415  1  0
202416  1  0
203417  1  6
204418  1  0
204419  1  0
205420  1  0
205421  1  0
206422  1  0
206423  1  0
207424  1  0
209425  1  0
209426  1  0
210427  1  0
210428  1  0
M  CHG  8  53   1  78   1  89   1 121   1 132   1 143   1 168   1 178  -1
M  CHG  2 209   1 213  -1
M  END
