
     RDKit          2D

353360  0  0  0  0  0  0  0  0999 V2000
  -28.8256    0.0586    0.0000 C   0  0  0  0  0  0  0  0  0  0  0  0
  -30.0800   -0.7638    0.0000 N   0  0  0  0  0  0  0  0  0  0  0  0
  -31.4195   -0.0886    0.0000 C   0  0  0  0  0  0  0  0  0  0  0  0
  -31.5045    1.4090    0.0000 C   0  0  0  0  0  0  0  0  0  0  0  0
  -32.8439    2.0842    0.0000 C   0  0  0  0  0  0  0  0  0  0  0  0
  -34.0984    1.2618    0.0000 C   0  0  0  0  0  0  0  0  0  0  0  0
  -34.0134   -0.2358    0.0000 C   0  0  0  0  0  0  0  0  0  0  0  0
  -32.6739   -0.9110    0.0000 C   0  0  0  0  0  0  0  0  0  0  0  0
  -35.4114   -0.7794    0.0000 C   0  0  0  0  0  0  0  0  0  0  0  0
  -36.3604    0.3822    0.0000 O   0  0  0  0  0  0  0  0  0  0  0  0
  -35.5489    1.6437    0.0000 C   0  0  0  0  0  0  0  0  0  0  0  0
  -36.0925    3.0417    0.0000 O   0  0  0  0  0  0  0  0  0  0  0  0
  -36.8586   -1.1739    0.0000 C   0  0  0  0  0  0  0  0  0  0  0  0
  -37.2406   -2.6245    0.0000 C   0  0  0  0  0  0  0  0  0  0  0  0
  -38.6878   -3.0190    0.0000 C   0  0  0  0  0  0  0  0  0  0  0  0
  -39.7530   -1.9629    0.0000 C   0  0  0  0  0  0  0  0  0  0  0  0
  -39.3710   -0.5124    0.0000 C   0  0  0  0  0  0  0  0  0  0  0  0
  -37.9238   -0.1179    0.0000 C   0  0  0  0  0  0  0  0  0  0  0  0
  -41.2002   -2.3574    0.0000 O   0  0  0  0  0  0  0  0  0  0  0  0
  -36.1753   -3.6805    0.0000 O   0  0  0  0  0  0  0  0  0  0  0  0
  -34.7281   -3.2861    0.0000 C   0  0  0  0  0  0  0  0  0  0  0  0
  -34.3462   -1.8355    0.0000 C   0  0  0  0  0  0  0  0  0  0  0  0
  -33.0772   -2.1179    0.0000 C   0  0  0  0  0  0  0  0  0  0  0  0
  -32.5091   -2.6812    0.0000 C   0  0  0  0  0  0  0  0  0  0  0  0
  -32.7128   -3.4548    0.0000 C   0  0  0  0  0  0  0  0  0  0  0  0
  -33.4846   -3.6652    0.0000 C   0  0  0  0  0  0  0  0  0  0  0  0
  -31.1504   -5.0037    0.0000 O   0  0  0  0  0  0  0  0  0  0  0  0
  -28.9106    1.5562    0.0000 S   0  0  0  0  0  0  0  0  0  0  0  0
  -27.4861   -0.6166    0.0000 N   0  0  0  0  0  0  0  0  0  0  0  0
  -26.2317    0.2058    0.0000 C   0  0  0  0  0  0  0  0  0  0  0  0
  -24.8922   -0.4694    0.0000 C   0  0  0  0  0  0  0  0  0  0  0  0
  -23.6378    0.3530    0.0000 C   0  0  0  0  0  0  0  0  0  0  0  0
  -23.7227    1.8506    0.0000 O   0  0  0  0  0  0  0  0  0  0  0  0
  -22.2983   -0.3222    0.0000 N   0  0  0  0  0  0  0  0  0  0  0  0
  -21.0439    0.5002    0.0000 C   0  0  0  0  0  0  0  0  0  0  0  0
  -20.1463    1.7020    0.0000 C   0  0  0  0  0  0  0  0  0  0  0  0
  -18.6567    1.5257    0.0000 C   0  0  0  0  0  0  0  0  0  0  0  0
  -17.7592    2.7275    0.0000 C   0  0  0  0  0  0  0  0  0  0  0  0
  -16.5442    2.7328    0.0000 O   0  0  0  0  0  0  0  0  0  0  0  0
  -18.3513    4.1057    0.0000 O   0  0  0  0  0  0  0  0  0  0  0  0
  -19.7044   -0.1750    0.0000 C   0  0  0  0  0  0  0  0  0  0  0  0
  -19.6194   -1.6726    0.0000 O   0  0  0  0  0  0  0  0  0  0  0  0
  -18.4500    0.6474    0.0000 N   0  0  0  0  0  0  0  0  0  0  0  0
  -17.1105   -0.0278    0.0000 C   0  0  0  0  0  0  0  0  0  0  0  0
  -16.0828   -1.1204    0.0000 C   0  0  0  0  0  0  0  0  0  0  0  0
  -16.5151   -2.5568    0.0000 C   0  0  0  0  0  0  0  0  0  0  0  0
  -15.4874   -3.6494    0.0000 C   0  0  0  0  0  0  0  0  0  0  0  0
  -15.9197   -5.0857    0.0000 N   0  0  0  0  0  0  0  0  0  0  0  0
  -14.8920   -6.1783    0.0000 C   0  0  0  0  0  0  0  0  0  0  0  0
  -15.3243   -7.6146    0.0000 N   0  0  0  0  0  0  0  0  0  0  0  0
  -13.4319   -5.8345    0.0000 N   0  0  0  0  0  0  0  0  0  0  0  0
  -15.8561    0.7946    0.0000 C   0  0  0  0  0  0  0  0  0  0  0  0
  -15.7765    2.0070    0.0000 O   0  0  0  0  0  0  0  0  0  0  0  0
  -14.5166    0.1194    0.0000 N   0  0  0  0  0  0  0  0  0  0  0  0
  -13.2622    0.9418    0.0000 C   0  0  0  0  0  0  0  0  0  0  0  0
  -12.3646    2.1436    0.0000 C   0  0  0  0  0  0  0  0  0  0  0  0
  -10.8750    1.9673    0.0000 C   0  0  0  0  0  0  0  0  0  0  0  0
   -9.9775    3.1691    0.0000 C   0  0  0  0  0  0  0  0  0  0  0  0
   -8.4775    3.1756    0.0000 C   0  0  0  0  0  0  0  0  0  0  0  0
  -11.9227    0.2666    0.0000 C   0  0  0  0  0  0  0  0  0  0  0  0
  -11.8377   -1.2310    0.0000 O   0  0  0  0  0  0  0  0  0  0  0  0
  -10.6682    1.0890    0.0000 N   0  0  0  0  0  0  0  0  0  0  0  0
   -9.3288    0.4138    0.0000 C   0  0  0  0  0  0  0  0  0  0  0  0
   -8.3011   -0.6788    0.0000 C   0  0  0  0  0  0  0  0  0  0  0  0
   -8.7334   -2.1152    0.0000 C   0  0  0  0  0  0  0  0  0  0  0  0
   -7.7057   -3.2078    0.0000 C   0  0  0  0  0  0  0  0  0  0  0  0
   -8.1380   -4.6441    0.0000 N   0  0  0  0  0  0  0  0  0  0  0  0
   -7.1103   -5.7367    0.0000 C   0  0  0  0  0  0  0  0  0  0  0  0
   -7.5426   -7.1730    0.0000 N   0  0  0  0  0  0  0  0  0  0  0  0
   -5.6502   -5.3929    0.0000 N   0  0  0  0  0  0  0  0  0  0  0  0
   -8.0743    1.2362    0.0000 C   0  0  0  0  0  0  0  0  0  0  0  0
   -7.9948    2.4486    0.0000 O   0  0  0  0  0  0  0  0  0  0  0  0
   -6.7349    0.5610    0.0000 N   0  0  0  0  0  0  0  0  0  0  0  0
   -5.4804    1.3834    0.0000 C   0  0  0  0  0  0  0  0  0  0  0  0
   -4.5829    2.5852    0.0000 C   0  0  0  0  0  0  0  0  0  0  0  0
   -3.0933    2.4089    0.0000 C   0  0  0  0  0  0  0  0  0  0  0  0
   -2.1958    3.6107    0.0000 C   0  0  0  0  0  0  0  0  0  0  0  0
   -0.7062    3.4344    0.0000 N   0  0  0  0  0  0  0  0  0  0  0  0
    0.1913    4.6362    0.0000 C   0  0  0  0  0  0  0  0  0  0  0  0
    1.6809    4.4598    0.0000 N   0  0  0  0  0  0  0  0  0  0  0  0
   -0.4007    6.0144    0.0000 N   0  0  0  0  0  0  0  0  0  0  0  0
   -4.1410    0.7082    0.0000 C   0  0  0  0  0  0  0  0  0  0  0  0
   -4.0560   -0.7894    0.0000 O   0  0  0  0  0  0  0  0  0  0  0  0
   -2.8865    1.5306    0.0000 N   0  0  0  0  0  0  0  0  0  0  0  0
   -1.5471    0.8554    0.0000 C   0  0  0  0  0  0  0  0  0  0  0  0
   -0.5194   -0.2372    0.0000 C   0  0  0  0  0  0  0  0  0  0  0  0
   -0.9517   -1.6736    0.0000 C   0  0  0  0  0  0  0  0  0  0  0  0
    0.0760   -2.7662    0.0000 C   0  0  0  0  0  0  0  0  0  0  0  0
   -0.3563   -4.2025    0.0000 N   0  0  0  0  0  0  0  0  0  0  0  0
    0.6714   -5.2951    0.0000 C   0  0  0  0  0  0  0  0  0  0  0  0
    0.2391   -6.7314    0.0000 N   0  0  0  0  0  0  0  0  0  0  0  0
    2.1315   -4.9513    0.0000 N   0  0  0  0  0  0  0  0  0  0  0  0
   -0.2926    1.6778    0.0000 C   0  0  0  0  0  0  0  0  0  0  0  0
   -0.0886    2.7521    0.0000 O   0  0  0  0  0  0  0  0  0  0  0  0
    1.0468    1.0026    0.0000 N   0  0  0  0  0  0  0  0  0  0  0  0
    2.3013    1.8250    0.0000 C   0  0  0  0  0  0  0  0  0  0  0  0
    3.1988    3.0268    0.0000 C   0  0  0  0  0  0  0  0  0  0  0  0
    4.6988    3.0334    0.0000 C   0  0  0  0  0  0  0  0  0  0  0  0
    3.6311    4.4632    0.0000 C   0  0  0  0  0  0  0  0  0  0  0  0
    5.0384    4.9823    0.0000 C   0  0  0  0  0  0  0  0  0  0  0  0
    3.6407    1.1498    0.0000 C   0  0  0  0  0  0  0  0  0  0  0  0
    3.5425   -0.3470    0.0000 O   0  0  0  0  0  0  0  0  0  0  0  0
    4.8952    1.9722    0.0000 N   0  0  0  0  0  0  0  0  0  0  0  0
    6.2346    1.2970    0.0000 C   0  0  0  0  0  0  0  0  0  0  0  0
    6.6147   -0.1541    0.0000 C   0  0  0  0  0  0  0  0  0  0  0  0
    7.4055   -1.4287    0.0000 C   0  0  0  0  0  0  0  0  0  0  0  0
    8.5369   -2.4135    0.0000 C   0  0  0  0  0  0  0  0  0  0  0  0
    9.9084   -3.0211    0.0000 C   0  0  0  0  0  0  0  0  0  0  0  0
    4.9620    0.5030    0.0000 C   0  0  0  0  0  0  0  0  0  0  0  0
    6.2992    2.7956    0.0000 C   0  0  0  0  0  0  0  0  0  0  0  0
    5.5412    3.0424    0.0000 O   0  0  0  0  0  0  0  0  0  0  0  0
    6.8026    4.2086    0.0000 N   0  0  0  0  0  0  0  0  0  0  0  0
    7.7001    5.4104    0.0000 C   0  0  0  0  0  0  0  0  0  0  0  0
    7.3929    6.8786    0.0000 C   0  0  0  0  0  0  0  0  0  0  0  0
    8.5107    7.8788    0.0000 C   0  0  0  0  0  0  0  0  0  0  0  0
    8.2035    9.3470    0.0000 C   0  0  0  0  0  0  0  0  0  0  0  0
    9.8249    8.6019    0.0000 C   0  0  0  0  0  0  0  0  0  0  0  0
    8.9120    6.2943    0.0000 C   0  0  0  0  0  0  0  0  0  0  0  0
    8.5611    7.7527    0.0000 O   0  0  0  0  0  0  0  0  0  0  0  0
   10.3306    6.7818    0.0000 N   0  0  0  0  0  0  0  0  0  0  0  0
   11.8298    6.8294    0.0000 C   0  0  0  0  0  0  0  0  0  0  0  0
   12.7862    7.9850    0.0000 C   0  0  0  0  0  0  0  0  0  0  0  0
   12.2635    9.3910    0.0000 S   0  0  0  0  0  0  0  0  0  0  0  0
   13.2765    6.4330    0.0000 C   0  0  0  0  0  0  0  0  0  0  0  0
   13.8841    7.8044    0.0000 O   0  0  0  0  0  0  0  0  0  0  0  0
   14.5421    5.6278    0.0000 N   0  0  0  0  0  0  0  0  0  0  0  0
   15.5141    4.4853    0.0000 C   0  0  0  0  0  0  0  0  0  0  0  0
   17.0138    4.4581    0.0000 C   0  0  0  0  0  0  0  0  0  0  0  0
   17.7872    5.7434    0.0000 C   0  0  0  0  0  0  0  0  0  0  0  0
   19.2870    5.7162    0.0000 C   0  0  0  0  0  0  0  0  0  0  0  0
   20.0604    7.0015    0.0000 N   0  0  0  0  0  0  0  0  0  0  0  0
   21.5601    6.9743    0.0000 C   0  0  0  0  0  0  0  0  0  0  0  0
   22.3335    8.2595    0.0000 N   0  0  0  0  0  0  0  0  0  0  0  0
   22.2865    5.6619    0.0000 N   0  0  0  0  0  0  0  0  0  0  0  0
   16.1061    3.1071    0.0000 C   0  0  0  0  0  0  0  0  0  0  0  0
   17.5572    3.4871    0.0000 O   0  0  0  0  0  0  0  0  0  0  0  0
   16.2657    1.6156    0.0000 N   0  0  0  0  0  0  0  0  0  0  0  0
   15.9785    0.1434    0.0000 C   0  0  0  0  0  0  0  0  0  0  0  0
   15.2701   -1.1788    0.0000 C   0  0  0  0  0  0  0  0  0  0  0  0
   14.2035   -2.2335    0.0000 C   0  0  0  0  0  0  0  0  0  0  0  0
   12.8734   -2.9269    0.0000 C   0  0  0  0  0  0  0  0  0  0  0  0
   11.3980   -3.1974    0.0000 C   0  0  0  0  0  0  0  0  0  0  0  0
   17.4386    0.4871    0.0000 C   0  0  0  0  0  0  0  0  0  0  0  0
   16.8923   -1.0461    0.0000 C   0  0  0  0  0  0  0  0  0  0  0  0
   16.6716   -2.5298    0.0000 O   0  0  0  0  0  0  0  0  0  0  0  0
   18.3794   -0.8495    0.0000 N   0  0  0  0  0  0  0  0  0  0  0  0
   19.2932   -2.0390    0.0000 C   0  0  0  0  0  0  0  0  0  0  0  0
   19.7451   -3.4693    0.0000 C   0  0  0  0  0  0  0  0  0  0  0  0
   18.7324   -4.5758    0.0000 C   0  0  0  0  0  0  0  0  0  0  0  0
   19.0323   -6.0455    0.0000 C   0  0  0  0  0  0  0  0  0  0  0  0
   17.7272   -6.7849    0.0000 N   0  0  0  0  0  0  0  0  0  0  0  0
   16.6207   -5.7722    0.0000 C   0  0  0  0  0  0  0  0  0  0  0  0
   17.2419   -4.4069    0.0000 N   0  0  0  0  0  0  0  0  0  0  0  0
   20.7803   -1.8423    0.0000 C   0  0  0  0  0  0  0  0  0  0  0  0
   21.3535   -0.4561    0.0000 O   0  0  0  0  0  0  0  0  0  0  0  0
   21.6941   -3.0318    0.0000 N   0  0  0  0  0  0  0  0  0  0  0  0
   23.1812   -2.8351    0.0000 C   0  0  0  0  0  0  0  0  0  0  0  0
   24.5113   -2.1417    0.0000 C   0  0  0  0  0  0  0  0  0  0  0  0
   25.7768   -2.9469    0.0000 C   0  0  0  0  0  0  0  0  0  0  0  0
   27.1721   -2.3964    0.0000 C   0  0  0  0  0  0  0  0  0  0  0  0
   28.1269   -3.5532    0.0000 N   0  0  0  0  0  0  0  0  0  0  0  0
   27.3217   -4.8188    0.0000 C   0  0  0  0  0  0  0  0  0  0  0  0
   25.8693   -4.4441    0.0000 N   0  0  0  0  0  0  0  0  0  0  0  0
   24.0950   -4.0246    0.0000 C   0  0  0  0  0  0  0  0  0  0  0  0
   23.5218   -5.4108    0.0000 O   0  0  0  0  0  0  0  0  0  0  0  0
   25.5821   -3.8280    0.0000 N   0  0  0  0  0  0  0  0  0  0  0  0
   26.4959   -5.0175    0.0000 C   0  0  0  0  0  0  0  0  0  0  0  0
   26.9478   -6.4478    0.0000 C   0  0  0  0  0  0  0  0  0  0  0  0
   25.9351   -7.5543    0.0000 O   0  0  0  0  0  0  0  0  0  0  0  0
   27.9830   -4.8208    0.0000 C   0  0  0  0  0  0  0  0  0  0  0  0
   28.8745   -3.6145    0.0000 O   0  0  0  0  0  0  0  0  0  0  0  0
   28.8968   -6.0103    0.0000 N   0  0  0  0  0  0  0  0  0  0  0  0
   30.3838   -5.8136    0.0000 C   0  0  0  0  0  0  0  0  0  0  0  0
   31.7140   -5.1202    0.0000 C   0  0  0  0  0  0  0  0  0  0  0  0
   32.7267   -4.0137    0.0000 O   0  0  0  0  0  0  0  0  0  0  0  0
   32.9795   -5.9254    0.0000 C   0  0  0  0  0  0  0  0  0  0  0  0
   31.2977   -7.0031    0.0000 C   0  0  0  0  0  0  0  0  0  0  0  0
   32.7976   -6.9892    0.0000 O   0  0  0  0  0  0  0  0  0  0  0  0
   30.7245   -8.3893    0.0000 O   0  0  0  0  0  0  0  0  0  0  0  0
  -29.8131   -2.2399    0.0000 H   0  0  0  0  0  0  0  0  0  0  0  0
  -30.2500    2.2314    0.0000 H   0  0  0  0  0  0  0  0  0  0  0  0
  -32.9289    3.5817    0.0000 H   0  0  0  0  0  0  0  0  0  0  0  0
  -32.2291   -2.3435    0.0000 H   0  0  0  0  0  0  0  0  0  0  0  0
  -39.0697   -4.4695    0.0000 H   0  0  0  0  0  0  0  0  0  0  0  0
  -40.4363    0.5437    0.0000 H   0  0  0  0  0  0  0  0  0  0  0  0
  -37.5419    1.3327    0.0000 H   0  0  0  0  0  0  0  0  0  0  0  0
  -42.2654   -1.3014    0.0000 H   0  0  0  0  0  0  0  0  0  0  0  0
  -32.5170    0.0096    0.0000 H   0  0  0  0  0  0  0  0  0  0  0  0
  -30.3492   -2.2819    0.0000 H   0  0  0  0  0  0  0  0  0  0  0  0
  -34.0448   -5.7927    0.0000 H   0  0  0  0  0  0  0  0  0  0  0  0
  -31.5324   -6.4542    0.0000 H   0  0  0  0  0  0  0  0  0  0  0  0
  -27.4011   -2.1142    0.0000 H   0  0  0  0  0  0  0  0  0  0  0  0
  -25.3341    1.4076    0.0000 H   0  0  0  0  0  0  0  0  0  0  0  0
  -27.2594    1.2984    0.0000 H   0  0  0  0  0  0  0  0  0  0  0  0
  -23.8645   -1.5620    0.0000 H   0  0  0  0  0  0  0  0  0  0  0  0
  -25.7898   -1.6713    0.0000 H   0  0  0  0  0  0  0  0  0  0  0  0
  -22.2133   -1.8198    0.0000 H   0  0  0  0  0  0  0  0  0  0  0  0
  -22.0716    1.5928    0.0000 H   0  0  0  0  0  0  0  0  0  0  0  0
  -19.7140    3.1384    0.0000 H   0  0  0  0  0  0  0  0  0  0  0  0
  -21.4858    2.3772    0.0000 H   0  0  0  0  0  0  0  0  0  0  0  0
  -17.3173    0.8505    0.0000 H   0  0  0  0  0  0  0  0  0  0  0  0
  -18.3640    0.0545    0.0000 H   0  0  0  0  0  0  0  0  0  0  0  0
  -18.1700    2.1210    0.0000 H   0  0  0  0  0  0  0  0  0  0  0  0
  -18.1479   -1.1113    0.0000 H   0  0  0  0  0  0  0  0  0  0  0  0
  -14.7433   -1.7956    0.0000 H   0  0  0  0  0  0  0  0  0  0  0  0
  -14.9211   -0.1715    0.0000 H   0  0  0  0  0  0  0  0  0  0  0  0
  -17.4127   -3.7586    0.0000 H   0  0  0  0  0  0  0  0  0  0  0  0
  -17.9269   -2.0499    0.0000 H   0  0  0  0  0  0  0  0  0  0  0  0
  -14.1479   -4.3245    0.0000 H   0  0  0  0  0  0  0  0  0  0  0  0
  -14.4500   -2.5659    0.0000 H   0  0  0  0  0  0  0  0  0  0  0  0
  -17.3798   -5.4294    0.0000 H   0  0  0  0  0  0  0  0  0  0  0  0
  -14.2966   -8.7072    0.0000 H   0  0  0  0  0  0  0  0  0  0  0  0
  -16.7844   -7.9584    0.0000 H   0  0  0  0  0  0  0  0  0  0  0  0
  -12.4042   -6.9271    0.0000 H   0  0  0  0  0  0  0  0  0  0  0  0
  -12.9996   -4.3982    0.0000 H   0  0  0  0  0  0  0  0  0  0  0  0
  -14.2497   -1.3567    0.0000 H   0  0  0  0  0  0  0  0  0  0  0  0
  -14.2899    2.0344    0.0000 H   0  0  0  0  0  0  0  0  0  0  0  0
  -12.1106    3.6220    0.0000 H   0  0  0  0  0  0  0  0  0  0  0  0
  -13.7041    2.8188    0.0000 H   0  0  0  0  0  0  0  0  0  0  0  0
   -9.6279    1.1338    0.0000 H   0  0  0  0  0  0  0  0  0  0  0  0
  -10.5823    0.4961    0.0000 H   0  0  0  0  0  0  0  0  0  0  0  0
   -9.5452    4.6055    0.0000 H   0  0  0  0  0  0  0  0  0  0  0  0
  -11.2246    4.0025    0.0000 H   0  0  0  0  0  0  0  0  0  0  0  0
   -7.5904    4.1946    0.0000 H   0  0  0  0  0  0  0  0  0  0  0  0
   -7.0538    2.4860    0.0000 H   0  0  0  0  0  0  0  0  0  0  0  0
   -8.7196    1.5145    0.0000 H   0  0  0  0  0  0  0  0  0  0  0  0
  -10.3883    2.5626    0.0000 H   0  0  0  0  0  0  0  0  0  0  0  0
  -10.3661   -0.6697    0.0000 H   0  0  0  0  0  0  0  0  0  0  0  0
   -6.9616   -1.3540    0.0000 H   0  0  0  0  0  0  0  0  0  0  0  0
   -7.1394    0.2701    0.0000 H   0  0  0  0  0  0  0  0  0  0  0  0
   -9.6309   -3.3170    0.0000 H   0  0  0  0  0  0  0  0  0  0  0  0
  -10.1452   -1.6083    0.0000 H   0  0  0  0  0  0  0  0  0  0  0  0
   -6.3662   -3.8829    0.0000 H   0  0  0  0  0  0  0  0  0  0  0  0
   -6.6683   -2.1243    0.0000 H   0  0  0  0  0  0  0  0  0  0  0  0
   -9.5981   -4.9878    0.0000 H   0  0  0  0  0  0  0  0  0  0  0  0
   -6.5149   -8.2656    0.0000 H   0  0  0  0  0  0  0  0  0  0  0  0
   -9.0027   -7.5168    0.0000 H   0  0  0  0  0  0  0  0  0  0  0  0
   -4.6225   -6.4855    0.0000 H   0  0  0  0  0  0  0  0  0  0  0  0
   -5.2179   -3.9566    0.0000 H   0  0  0  0  0  0  0  0  0  0  0  0
   -6.4680   -0.9151    0.0000 H   0  0  0  0  0  0  0  0  0  0  0  0
   -6.3673    2.5931    0.0000 H   0  0  0  0  0  0  0  0  0  0  0  0
   -4.3289    4.0636    0.0000 H   0  0  0  0  0  0  0  0  0  0  0  0
   -5.9224    3.2604    0.0000 H   0  0  0  0  0  0  0  0  0  0  0  0
   -1.7539    1.7337    0.0000 H   0  0  0  0  0  0  0  0  0  0  0  0
   -2.8006    0.9377    0.0000 H   0  0  0  0  0  0  0  0  0  0  0  0
   -1.7634    5.0471    0.0000 H   0  0  0  0  0  0  0  0  0  0  0  0
   -3.4429    4.4441    0.0000 H   0  0  0  0  0  0  0  0  0  0  0  0
    0.2018    2.2404    0.0000 H   0  0  0  0  0  0  0  0  0  0  0  0
    2.5785    5.6617    0.0000 H   0  0  0  0  0  0  0  0  0  0  0  0
    2.1223    3.0144    0.0000 H   0  0  0  0  0  0  0  0  0  0  0  0
    0.4968    7.2163    0.0000 H   0  0  0  0  0  0  0  0  0  0  0  0
   -1.8903    6.1908    0.0000 H   0  0  0  0  0  0  0  0  0  0  0  0
   -2.6066    3.0042    0.0000 H   0  0  0  0  0  0  0  0  0  0  0  0
   -2.5844   -0.2281    0.0000 H   0  0  0  0  0  0  0  0  0  0  0  0
    0.8201   -0.9124    0.0000 H   0  0  0  0  0  0  0  0  0  0  0  0
    0.6423    0.7117    0.0000 H   0  0  0  0  0  0  0  0  0  0  0  0
   -1.8492   -2.8754    0.0000 H   0  0  0  0  0  0  0  0  0  0  0  0
   -2.3635   -1.1667    0.0000 H   0  0  0  0  0  0  0  0  0  0  0  0
    1.4155   -3.4413    0.0000 H   0  0  0  0  0  0  0  0  0  0  0  0
    1.1134   -1.6827    0.0000 H   0  0  0  0  0  0  0  0  0  0  0  0
   -1.8164   -4.5462    0.0000 H   0  0  0  0  0  0  0  0  0  0  0  0
    1.2668   -7.8240    0.0000 H   0  0  0  0  0  0  0  0  0  0  0  0
   -1.2210   -7.0752    0.0000 H   0  0  0  0  0  0  0  0  0  0  0  0
    3.1592   -6.0439    0.0000 H   0  0  0  0  0  0  0  0  0  0  0  0
    2.5638   -3.5150    0.0000 H   0  0  0  0  0  0  0  0  0  0  0  0
    1.3137   -0.4735    0.0000 H   0  0  0  0  0  0  0  0  0  0  0  0
    1.2735    2.9176    0.0000 H   0  0  0  0  0  0  0  0  0  0  0  0
    1.7358    3.3578    0.0000 H   0  0  0  0  0  0  0  0  0  0  0  0
    5.6083    4.0524    0.0000 H   0  0  0  0  0  0  0  0  0  0  0  0
    6.1960    2.5224    0.0000 H   0  0  0  0  0  0  0  0  0  0  0  0
    4.8659    1.3630    0.0000 H   0  0  0  0  0  0  0  0  0  0  0  0
    3.5462    5.9608    0.0000 H   0  0  0  0  0  0  0  0  0  0  0  0
    2.1742    4.8198    0.0000 H   0  0  0  0  0  0  0  0  0  0  0  0
    5.2040    6.3232    0.0000 H   0  0  0  0  0  0  0  0  0  0  0  0
    6.5792    4.9962    0.0000 H   0  0  0  0  0  0  0  0  0  0  0  0
    5.1762    3.3093    0.0000 H   0  0  0  0  0  0  0  0  0  0  0  0
    4.6283    3.4482    0.0000 H   0  0  0  0  0  0  0  0  0  0  0  0
    5.1162   -0.0858    0.0000 H   0  0  0  0  0  0  0  0  0  0  0  0
    5.7781   -1.3992    0.0000 H   0  0  0  0  0  0  0  0  0  0  0  0
    6.0102   -1.9793    0.0000 H   0  0  0  0  0  0  0  0  0  0  0  0
    6.8013   -2.8016    0.0000 H   0  0  0  0  0  0  0  0  0  0  0  0
    7.2604   -3.2012    0.0000 H   0  0  0  0  0  0  0  0  0  0  0  0
    8.5472   -3.9135    0.0000 H   0  0  0  0  0  0  0  0  0  0  0  0
    9.5120   -4.4678    0.0000 H   0  0  0  0  0  0  0  0  0  0  0  0
    4.8972   -1.1617    0.0000 H   0  0  0  0  0  0  0  0  0  0  0  0
    3.7371   -0.2889    0.0000 H   0  0  0  0  0  0  0  0  0  0  0  0
    3.9662    1.3666    0.0000 H   0  0  0  0  0  0  0  0  0  0  0  0
    5.6911    5.2159    0.0000 H   0  0  0  0  0  0  0  0  0  0  0  0
    6.2355    5.7342    0.0000 H   0  0  0  0  0  0  0  0  0  0  0  0
    6.4525    8.0473    0.0000 H   0  0  0  0  0  0  0  0  0  0  0  0
    5.9068    6.6746    0.0000 H   0  0  0  0  0  0  0  0  0  0  0  0
    9.5865    6.8335    0.0000 H   0  0  0  0  0  0  0  0  0  0  0  0
    9.1911   10.4760    0.0000 H   0  0  0  0  0  0  0  0  0  0  0  0
    7.4126   10.6216    0.0000 H   0  0  0  0  0  0  0  0  0  0  0  0
    6.7534    8.9634    0.0000 H   0  0  0  0  0  0  0  0  0  0  0  0
   10.2961    9.8840    0.0000 H   0  0  0  0  0  0  0  0  0  0  0  0
   11.4051    8.6771    0.0000 H   0  0  0  0  0  0  0  0  0  0  0  0
   10.5566    7.0861    0.0000 H   0  0  0  0  0  0  0  0  0  0  0  0
   10.2419    8.2791    0.0000 H   0  0  0  0  0  0  0  0  0  0  0  0
   11.3389    8.2468    0.0000 H   0  0  0  0  0  0  0  0  0  0  0  0
   14.0801    8.7438    0.0000 H   0  0  0  0  0  0  0  0  0  0  0  0
   14.0057    7.1117    0.0000 H   0  0  0  0  0  0  0  0  0  0  0  0
   13.2199   10.5466    0.0000 H   0  0  0  0  0  0  0  0  0  0  0  0
   15.5269    6.7592    0.0000 H   0  0  0  0  0  0  0  0  0  0  0  0
   15.9856    5.9093    0.0000 H   0  0  0  0  0  0  0  0  0  0  0  0
   18.3378    3.7530    0.0000 H   0  0  0  0  0  0  0  0  0  0  0  0
   17.0914    2.9602    0.0000 H   0  0  0  0  0  0  0  0  0  0  0  0
   18.0744    7.2156    0.0000 H   0  0  0  0  0  0  0  0  0  0  0  0
   16.4633    6.4485    0.0000 H   0  0  0  0  0  0  0  0  0  0  0  0
   20.6870    5.1777    0.0000 H   0  0  0  0  0  0  0  0  0  0  0  0
   19.1814    4.2199    0.0000 H   0  0  0  0  0  0  0  0  0  0  0  0
   19.3340    8.3139    0.0000 H   0  0  0  0  0  0  0  0  0  0  0  0
   23.8333    8.2324    0.0000 H   0  0  0  0  0  0  0  0  0  0  0  0
   21.6072    9.5719    0.0000 H   0  0  0  0  0  0  0  0  0  0  0  0
   23.7862    5.6347    0.0000 H   0  0  0  0  0  0  0  0  0  0  0  0
   21.5131    4.3766    0.0000 H   0  0  0  0  0  0  0  0  0  0  0  0
   17.7643    1.5511    0.0000 H   0  0  0  0  0  0  0  0  0  0  0  0
   15.7927   -2.5848    0.0000 H   0  0  0  0  0  0  0  0  0  0  0  0
   16.6975   -1.6398    0.0000 H   0  0  0  0  0  0  0  0  0  0  0  0
   14.4704   -3.7096    0.0000 H   0  0  0  0  0  0  0  0  0  0  0  0
   15.4316   -3.0947    0.0000 H   0  0  0  0  0  0  0  0  0  0  0  0
   12.5132   -4.3830    0.0000 H   0  0  0  0  0  0  0  0  0  0  0  0
   13.9307   -3.9909    0.0000 H   0  0  0  0  0  0  0  0  0  0  0  0
   11.4456   -4.6967    0.0000 H   0  0  0  0  0  0  0  0  0  0  0  0
   18.7001   -0.3243    0.0000 H   0  0  0  0  0  0  0  0  0  0  0  0
   18.5834    1.4563    0.0000 H   0  0  0  0  0  0  0  0  0  0  0  0
   17.1976    1.9676    0.0000 H   0  0  0  0  0  0  0  0  0  0  0  0
   19.1173    0.4565    0.0000 H   0  0  0  0  0  0  0  0  0  0  0  0
   17.9631   -2.7324    0.0000 H   0  0  0  0  0  0  0  0  0  0  0  0
   20.5072   -4.7613    0.0000 H   0  0  0  0  0  0  0  0  0  0  0  0
   21.2035   -3.1183    0.0000 H   0  0  0  0  0  0  0  0  0  0  0  0
   20.3976   -6.6667    0.0000 H   0  0  0  0  0  0  0  0  0  0  0  0
   17.5583   -8.2754    0.0000 H   0  0  0  0  0  0  0  0  0  0  0  0
   15.1510   -6.0721    0.0000 H   0  0  0  0  0  0  0  0  0  0  0  0
   21.2941   -4.4775    0.0000 H   0  0  0  0  0  0  0  0  0  0  0  0
   22.7293   -1.4048    0.0000 H   0  0  0  0  0  0  0  0  0  0  0  0
   25.5240   -1.0352    0.0000 H   0  0  0  0  0  0  0  0  0  0  0  0
   23.5974   -0.9522    0.0000 H   0  0  0  0  0  0  0  0  0  0  0  0
   27.5469   -0.9439    0.0000 H   0  0  0  0  0  0  0  0  0  0  0  0
   29.6241   -3.4608    0.0000 H   0  0  0  0  0  0  0  0  0  0  0  0
   28.0383   -6.1366    0.0000 H   0  0  0  0  0  0  0  0  0  0  0  0
   26.4737   -2.6217    0.0000 H   0  0  0  0  0  0  0  0  0  0  0  0
   25.1658   -5.7109    0.0000 H   0  0  0  0  0  0  0  0  0  0  0  0
   27.7098   -7.7398    0.0000 H   0  0  0  0  0  0  0  0  0  0  0  0
   28.4381   -6.2772    0.0000 H   0  0  0  0  0  0  0  0  0  0  0  0
   26.3870   -8.9846    0.0000 H   0  0  0  0  0  0  0  0  0  0  0  0
   28.4968   -7.4560    0.0000 H   0  0  0  0  0  0  0  0  0  0  0  0
   29.9319   -4.3833    0.0000 H   0  0  0  0  0  0  0  0  0  0  0  0
   30.8001   -3.9307    0.0000 H   0  0  0  0  0  0  0  0  0  0  0  0
   34.2199   -4.1566    0.0000 H   0  0  0  0  0  0  0  0  0  0  0  0
   34.3842   -5.3993    0.0000 H   0  0  0  0  0  0  0  0  0  0  0  0
   33.8934   -7.1149    0.0000 H   0  0  0  0  0  0  0  0  0  0  0  0
   32.4307   -7.3214    0.0000 H   0  0  0  0  0  0  0  0  0  0  0  0
  1  2  1  0
  2  3  1  0
  3  4  2  0
  4  5  1  0
  5  6  2  0
  6  7  1  0
  7  8  2  0
  7  9  1  0
  9 10  1  0
 10 11  1  0
 11 12  2  0
  9 13  1  0
 13 14  1  0
 14 15  2  0
 15 16  1  0
 16 17  2  0
 17 18  1  0
 16 19  1  0
 14 20  1  0
 20 21  1  0
 21 22  2  0
 22 23  1  0
 23 24  2  0
 24 25  1  0
 25 26  2  0
 25 27  1  0
  1 28  2  0
  1 29  1  0
 29 30  1  0
 30 31  1  0
 31 32  1  0
 32 33  2  0
 32 34  1  0
 34 35  1  0
 35 36  1  0
 36 37  1  0
 37 38  1  0
 38 39  2  0
 38 40  1  0
 35 41  1  0
 41 42  2  0
 41 43  1  0
 43 44  1  0
 44 45  1  0
 45 46  1  0
 46 47  1  0
 47 48  1  0
 48 49  1  0
 49 50  2  3
 49 51  1  0
 44 52  1  0
 52 53  2  0
 52 54  1  0
 54 55  1  0
 55 56  1  0
 56 57  1  0
 57 58  1  0
 58 59  1  0
 55 60  1  0
 60 61  2  0
 60 62  1  0
 62 63  1  0
 63 64  1  0
 64 65  1  0
 65 66  1  0
 66 67  1  0
 67 68  1  0
 68 69  2  3
 68 70  1  0
 63 71  1  0
 71 72  2  0
 71 73  1  0
 73 74  1  0
 74 75  1  0
 75 76  1  0
 76 77  1  0
 77 78  1  0
 78 79  1  0
 79 80  2  3
 79 81  1  0
 74 82  1  0
 82 83  2  0
 82 84  1  0
 84 85  1  0
 85 86  1  0
 86 87  1  0
 87 88  1  0
 88 89  1  0
 89 90  1  0
 90 91  2  3
 90 92  1  0
 85 93  1  0
 93 94  2  0
 93 95  1  0
 95 96  1  0
 96 97  1  0
 97 98  1  0
 97 99  1  0
 99100  1  0
 96101  1  0
101102  2  0
101103  1  0
104103  1  6
104105  1  0
105106  1  0
106107  1  0
107108  1  0
104109  1  0
104110  1  0
110111  2  0
110112  1  0
112113  1  0
113114  1  0
114115  1  0
115116  1  0
115117  1  0
113118  1  0
118119  2  0
118120  1  0
120121  1  0
121122  1  0
122123  1  0
121124  1  0
124125  2  0
124126  1  0
126127  1  0
127128  1  0
128129  1  0
129130  1  0
130131  1  0
131132  1  0
132133  2  3
132134  1  0
127135  1  0
135136  2  0
135137  1  0
137138  1  0
138139  1  0
139140  1  0
140141  1  0
141142  1  0
138143  1  0
138144  1  6
144145  2  0
144146  1  0
146147  1  0
147148  1  0
148149  1  0
149150  2  0
150151  1  0
151152  1  0
152153  2  0
147154  1  0
154155  2  0
154156  1  0
156157  1  0
157158  1  0
158159  1  0
159160  2  0
160161  1  0
161162  1  0
162163  2  0
157164  1  0
164165  2  0
164166  1  0
166167  1  0
167168  1  0
168169  1  0
167170  1  0
170171  2  0
170172  1  0
172173  1  0
173174  1  0
174175  1  0
174176  1  0
173177  1  0
177178  2  0
177179  1  0
  8  3  1  0
153149  1  0
163159  1  0
 11  6  1  0
 18 13  2  0
108142  2  0
 22  9  1  0
 26 21  1  0
  2180  1  0
  4181  1  0
  5182  1  0
  8183  1  0
 15184  1  0
 17185  1  0
 18186  1  0
 19187  1  0
 23188  1  0
 24189  1  0
 26190  1  0
 27191  1  0
 29192  1  0
 30193  1  0
 30194  1  0
 31195  1  0
 31196  1  0
 34197  1  0
 35198  1  1
 36199  1  0
 36200  1  0
 37201  1  0
 37202  1  0
 43203  1  0
 44204  1  6
 45205  1  0
 45206  1  0
 46207  1  0
 46208  1  0
 47209  1  0
 47210  1  0
 48211  1  0
 50212  1  0
 50213  1  0
 51214  1  0
 51215  1  0
 54216  1  0
 55217  1  6
 56218  1  0
 56219  1  0
 57220  1  0
 57221  1  0
 58222  1  0
 58223  1  0
 59224  1  0
 59225  1  0
 59226  1  0
 62227  1  0
 63228  1  6
 64229  1  0
 64230  1  0
 65231  1  0
 65232  1  0
 66233  1  0
 66234  1  0
 67235  1  0
 69236  1  0
 69237  1  0
 70238  1  0
 70239  1  0
 73240  1  0
 74241  1  1
 75242  1  0
 75243  1  0
 76244  1  0
 76245  1  0
 77246  1  0
 77247  1  0
 78248  1  0
 80249  1  0
 80250  1  0
 81251  1  0
 81252  1  0
 84253  1  0
 85254  1  6
 86255  1  0
 86256  1  0
 87257  1  0
 87258  1  0
 88259  1  0
 88260  1  0
 89261  1  0
 91262  1  0
 91263  1  0
 92264  1  0
 92265  1  0
 95266  1  0
 96267  1  1
 97268  1  1
 98269  1  0
 98270  1  0
 98271  1  0
 99272  1  0
 99273  1  0
100274  1  0
100275  1  0
100276  1  0
103277  1  0
105278  1  0
105279  1  0
106280  1  0
106281  1  0
107282  1  0
107283  1  0
108284  1  0
109285  1  0
109286  1  0
109287  1  0
112288  1  0
113289  1  1
114290  1  0
114291  1  0
115292  1  0
116293  1  0
116294  1  0
116295  1  0
117296  1  0
117297  1  0
117298  1  0
120299  1  0
121300  1  1
122301  1  0
122302  1  0
123303  1  0
126304  1  0
127305  1  1
128306  1  0
128307  1  0
129308  1  0
129309  1  0
130310  1  0
130311  1  0
131312  1  0
133313  1  0
133314  1  0
134315  1  0
134316  1  0
137317  1  0
139318  1  0
139319  1  0
140320  1  0
140321  1  0
141322  1  0
141323  1  0
142324  1  0
143325  1  0
143326  1  0
143327  1  0
146328  1  0
147329  1  6
148330  1  0
148331  1  0
150332  1  0
151333  1  0
152334  1  0
156335  1  0
157336  1  1
158337  1  0
158338  1  0
160339  1  0
161340  1  0
162341  1  0
166342  1  0
167343  1  6
168344  1  0
168345  1  0
169346  1  0
172347  1  0
173348  1  1
174349  1  1
175350  1  0
176351  1  0
176352  1  0
176353  1  0
M  CHG  7  40  -1  50   1  69   1  80   1  91   1 133   1 179  -1
M  END
