
     RDKit          2D

302309  0  0  0  0  0  0  0  0999 V2000
   20.6032   -2.7538    0.0000 C   0  0  0  0  0  0  0  0  0  0  0  0
   21.9232   -2.0414    0.0000 N   0  0  0  0  0  0  0  0  0  0  0  0
   23.2002   -2.8284    0.0000 C   0  0  0  0  0  0  0  0  0  0  0  0
   23.1571   -4.3277    0.0000 C   0  0  0  0  0  0  0  0  0  0  0  0
   24.4341   -5.1147    0.0000 C   0  0  0  0  0  0  0  0  0  0  0  0
   25.7541   -4.4023    0.0000 C   0  0  0  0  0  0  0  0  0  0  0  0
   25.7972   -2.9029    0.0000 C   0  0  0  0  0  0  0  0  0  0  0  0
   24.5202   -2.1159    0.0000 C   0  0  0  0  0  0  0  0  0  0  0  0
   27.2365   -2.4805    0.0000 C   0  0  0  0  0  0  0  0  0  0  0  0
   28.0830   -3.7188    0.0000 O   0  0  0  0  0  0  0  0  0  0  0  0
   27.1668   -4.9065    0.0000 C   0  0  0  0  0  0  0  0  0  0  0  0
   27.5892   -6.3458    0.0000 O   0  0  0  0  0  0  0  0  0  0  0  0
   28.7120   -2.2109    0.0000 C   0  0  0  0  0  0  0  0  0  0  0  0
   29.2163   -0.7982    0.0000 C   0  0  0  0  0  0  0  0  0  0  0  0
   30.6919   -0.5285    0.0000 C   0  0  0  0  0  0  0  0  0  0  0  0
   31.6632   -1.6716    0.0000 C   0  0  0  0  0  0  0  0  0  0  0  0
   31.1589   -3.0843    0.0000 C   0  0  0  0  0  0  0  0  0  0  0  0
   29.6833   -3.3539    0.0000 C   0  0  0  0  0  0  0  0  0  0  0  0
   33.1387   -1.4019    0.0000 O   0  0  0  0  0  0  0  0  0  0  0  0
   28.2450    0.3449    0.0000 O   0  0  0  0  0  0  0  0  0  0  0  0
   26.7694    0.0753    0.0000 C   0  0  0  0  0  0  0  0  0  0  0  0
   26.2652   -1.3374    0.0000 C   0  0  0  0  0  0  0  0  0  0  0  0
   25.0249   -0.9478    0.0000 C   0  0  0  0  0  0  0  0  0  0  0  0
   24.5069   -0.3382    0.0000 C   0  0  0  0  0  0  0  0  0  0  0  0
   24.7758    0.4152    0.0000 C   0  0  0  0  0  0  0  0  0  0  0  0
   25.5628    0.5591    0.0000 C   0  0  0  0  0  0  0  0  0  0  0  0
   23.3513    2.0917    0.0000 O   0  0  0  0  0  0  0  0  0  0  0  0
   20.5601   -4.2532    0.0000 S   0  0  0  0  0  0  0  0  0  0  0  0
   19.3262   -1.9668    0.0000 N   0  0  0  0  0  0  0  0  0  0  0  0
   18.0061   -2.6793    0.0000 C   0  0  0  0  0  0  0  0  0  0  0  0
   16.7292   -1.8923    0.0000 C   0  0  0  0  0  0  0  0  0  0  0  0
   15.4091   -2.6047    0.0000 C   0  0  0  0  0  0  0  0  0  0  0  0
   15.5798   -3.3834    0.0000 O   0  0  0  0  0  0  0  0  0  0  0  0
   14.1322   -1.8178    0.0000 N   0  0  0  0  0  0  0  0  0  0  0  0
   12.8121   -2.5302    0.0000 C   0  0  0  0  0  0  0  0  0  0  0  0
   13.7430   -3.7064    0.0000 C   0  0  0  0  0  0  0  0  0  0  0  0
   15.2270   -3.4885    0.0000 C   0  0  0  0  0  0  0  0  0  0  0  0
   14.2153   -5.1301    0.0000 C   0  0  0  0  0  0  0  0  0  0  0  0
   15.6845   -5.4329    0.0000 C   0  0  0  0  0  0  0  0  0  0  0  0
   11.3281   -2.7482    0.0000 C   0  0  0  0  0  0  0  0  0  0  0  0
   11.1286   -4.2348    0.0000 O   0  0  0  0  0  0  0  0  0  0  0  0
   10.3972   -1.5719    0.0000 N   0  0  0  0  0  0  0  0  0  0  0  0
    8.9132   -1.7899    0.0000 C   0  0  0  0  0  0  0  0  0  0  0  0
    9.3855   -3.2136    0.0000 C   0  0  0  0  0  0  0  0  0  0  0  0
   10.8547   -3.5163    0.0000 C   0  0  0  0  0  0  0  0  0  0  0  0
   11.3270   -4.9400    0.0000 C   0  0  0  0  0  0  0  0  0  0  0  0
   12.6793   -5.5892    0.0000 N   0  0  0  0  0  0  0  0  0  0  0  0
   10.3303   -6.0609    0.0000 O   0  0  0  0  0  0  0  0  0  0  0  0
    7.4440   -1.4871    0.0000 C   0  0  0  0  0  0  0  0  0  0  0  0
    6.7481   -2.8159    0.0000 O   0  0  0  0  0  0  0  0  0  0  0  0
    6.9717   -0.0635    0.0000 N   0  0  0  0  0  0  0  0  0  0  0  0
    5.5025    0.2393    0.0000 C   0  0  0  0  0  0  0  0  0  0  0  0
    5.4595   -1.2601    0.0000 C   0  0  0  0  0  0  0  0  0  0  0  0
    6.7365   -2.0471    0.0000 C   0  0  0  0  0  0  0  0  0  0  0  0
    6.6934   -3.5464    0.0000 O   0  0  0  0  0  0  0  0  0  0  0  0
    8.1897   -1.6752    0.0000 O   0  0  0  0  0  0  0  0  0  0  0  0
    4.2255    1.0263    0.0000 C   0  0  0  0  0  0  0  0  0  0  0  0
    3.1171    0.0156    0.0000 O   0  0  0  0  0  0  0  0  0  0  0  0
    4.2686    2.5256    0.0000 N   0  0  0  0  0  0  0  0  0  0  0  0
    2.9916    3.3126    0.0000 C   0  0  0  0  0  0  0  0  0  0  0  0
    2.8535    1.8190    0.0000 C   0  0  0  0  0  0  0  0  0  0  0  0
    2.4353    0.3784    0.0000 C   0  0  0  0  0  0  0  0  0  0  0  0
    1.7520   -0.9569    0.0000 C   0  0  0  0  0  0  0  0  0  0  0  0
    0.8284   -2.1388    0.0000 C   0  0  0  0  0  0  0  0  0  0  0  0
    4.2638    4.1073    0.0000 C   0  0  0  0  0  0  0  0  0  0  0  0
    2.8445    4.8054    0.0000 C   0  0  0  0  0  0  0  0  0  0  0  0
    4.2704    5.2710    0.0000 O   0  0  0  0  0  0  0  0  0  0  0  0
    2.4175    6.2433    0.0000 N   0  0  0  0  0  0  0  0  0  0  0  0
    1.7261    7.5745    0.0000 C   0  0  0  0  0  0  0  0  0  0  0  0
    2.3667    8.9308    0.0000 C   0  0  0  0  0  0  0  0  0  0  0  0
    3.8616    9.0542    0.0000 C   0  0  0  0  0  0  0  0  0  0  0  0
    4.5022   10.4106    0.0000 C   0  0  0  0  0  0  0  0  0  0  0  0
    5.3086    8.6589    0.0000 C   0  0  0  0  0  0  0  0  0  0  0  0
    0.7953    8.7507    0.0000 C   0  0  0  0  0  0  0  0  0  0  0  0
    1.7431    9.9133    0.0000 O   0  0  0  0  0  0  0  0  0  0  0  0
   -0.3413    9.7296    0.0000 N   0  0  0  0  0  0  0  0  0  0  0  0
   -1.6426   10.4756    0.0000 C   0  0  0  0  0  0  0  0  0  0  0  0
   -1.8370   11.9630    0.0000 C   0  0  0  0  0  0  0  0  0  0  0  0
   -3.0616   10.9619    0.0000 C   0  0  0  0  0  0  0  0  0  0  0  0
   -2.8928   12.4524    0.0000 O   0  0  0  0  0  0  0  0  0  0  0  0
   -4.5470   11.1709    0.0000 N   0  0  0  0  0  0  0  0  0  0  0  0
   -6.0450   11.0950    0.0000 C   0  0  0  0  0  0  0  0  0  0  0  0
   -7.0127   12.2411    0.0000 C   0  0  0  0  0  0  0  0  0  0  0  0
   -6.5040   13.6522    0.0000 C   0  0  0  0  0  0  0  0  0  0  0  0
   -5.0276   13.9171    0.0000 C   0  0  0  0  0  0  0  0  0  0  0  0
   -4.5188   15.3282    0.0000 C   0  0  0  0  0  0  0  0  0  0  0  0
   -5.4865   16.4744    0.0000 C   0  0  0  0  0  0  0  0  0  0  0  0
   -6.9629   16.2094    0.0000 C   0  0  0  0  0  0  0  0  0  0  0  0
   -7.4716   14.7983    0.0000 C   0  0  0  0  0  0  0  0  0  0  0  0
   -7.5017   10.7369    0.0000 C   0  0  0  0  0  0  0  0  0  0  0  0
   -8.1655   12.0820    0.0000 O   0  0  0  0  0  0  0  0  0  0  0  0
   -8.8642   10.1096    0.0000 N   0  0  0  0  0  0  0  0  0  0  0  0
  -10.0834    9.2358    0.0000 C   0  0  0  0  0  0  0  0  0  0  0  0
  -11.5171    9.6769    0.0000 C   0  0  0  0  0  0  0  0  0  0  0  0
  -11.8521   11.1390    0.0000 C   0  0  0  0  0  0  0  0  0  0  0  0
  -10.7533   12.1601    0.0000 C   0  0  0  0  0  0  0  0  0  0  0  0
  -11.0882   13.6222    0.0000 C   0  0  0  0  0  0  0  0  0  0  0  0
  -12.5219   14.0633    0.0000 C   0  0  0  0  0  0  0  0  0  0  0  0
  -13.6207   13.0422    0.0000 C   0  0  0  0  0  0  0  0  0  0  0  0
  -13.2858   11.5800    0.0000 C   0  0  0  0  0  0  0  0  0  0  0  0
  -11.1153    8.1471    0.0000 C   0  0  0  0  0  0  0  0  0  0  0  0
  -12.4009    8.9198    0.0000 O   0  0  0  0  0  0  0  0  0  0  0  0
  -11.9224    6.8828    0.0000 N   0  0  0  0  0  0  0  0  0  0  0  0
  -12.4756    5.4885    0.0000 C   0  0  0  0  0  0  0  0  0  0  0  0
  -13.9202    5.0844    0.0000 C   0  0  0  0  0  0  0  0  0  0  0  0
  -14.9924    6.1334    0.0000 O   0  0  0  0  0  0  0  0  0  0  0  0
  -12.7550    4.0148    0.0000 C   0  0  0  0  0  0  0  0  0  0  0  0
  -14.2544    3.9697    0.0000 O   0  0  0  0  0  0  0  0  0  0  0  0
  -12.7505    2.5148    0.0000 N   0  0  0  0  0  0  0  0  0  0  0  0
  -12.4621    1.0427    0.0000 C   0  0  0  0  0  0  0  0  0  0  0  0
  -13.4589   -0.0782    0.0000 C   0  0  0  0  0  0  0  0  0  0  0  0
  -14.9280    0.2246    0.0000 C   0  0  0  0  0  0  0  0  0  0  0  0
  -15.9248   -0.8964    0.0000 C   0  0  0  0  0  0  0  0  0  0  0  0
  -17.3939   -0.5936    0.0000 N   0  0  0  0  0  0  0  0  0  0  0  0
  -18.3907   -1.7145    0.0000 C   0  0  0  0  0  0  0  0  0  0  0  0
  -19.8598   -1.4118    0.0000 N   0  0  0  0  0  0  0  0  0  0  0  0
  -17.9183   -3.1382    0.0000 N   0  0  0  0  0  0  0  0  0  0  0  0
  -11.9004   -0.3481    0.0000 C   0  0  0  0  0  0  0  0  0  0  0  0
  -13.1374   -1.1966    0.0000 O   0  0  0  0  0  0  0  0  0  0  0  0
  -11.0856   -1.6075    0.0000 N   0  0  0  0  0  0  0  0  0  0  0  0
  -10.0472   -2.6900    0.0000 C   0  0  0  0  0  0  0  0  0  0  0  0
   -8.8227   -3.5563    0.0000 C   0  0  0  0  0  0  0  0  0  0  0  0
   -7.4564   -4.1753    0.0000 C   0  0  0  0  0  0  0  0  0  0  0  0
   -5.9976   -4.5245    0.0000 C   0  0  0  0  0  0  0  0  0  0  0  0
   -4.4991   -4.5913    0.0000 C   0  0  0  0  0  0  0  0  0  0  0  0
   -3.0150   -4.3734    0.0000 C   0  0  0  0  0  0  0  0  0  0  0  0
   -1.5990   -3.8785    0.0000 C   0  0  0  0  0  0  0  0  0  0  0  0
   -0.3023   -3.1245    0.0000 C   0  0  0  0  0  0  0  0  0  0  0  0
  -11.4782   -3.1397    0.0000 C   0  0  0  0  0  0  0  0  0  0  0  0
  -10.2797   -4.1718    0.0000 C   0  0  0  0  0  0  0  0  0  0  0  0
   -9.3753   -5.3685    0.0000 O   0  0  0  0  0  0  0  0  0  0  0  0
  -11.6793   -4.7114    0.0000 N   0  0  0  0  0  0  0  0  0  0  0  0
  -11.9118   -6.1933    0.0000 C   0  0  0  0  0  0  0  0  0  0  0  0
  -11.6235   -7.6653    0.0000 C   0  0  0  0  0  0  0  0  0  0  0  0
  -12.7541   -8.6510    0.0000 C   0  0  0  0  0  0  0  0  0  0  0  0
  -12.4657  -10.1231    0.0000 C   0  0  0  0  0  0  0  0  0  0  0  0
  -14.1537   -9.1906    0.0000 C   0  0  0  0  0  0  0  0  0  0  0  0
  -13.3114   -6.7329    0.0000 C   0  0  0  0  0  0  0  0  0  0  0  0
  -14.4785   -5.7906    0.0000 O   0  0  0  0  0  0  0  0  0  0  0  0
  -13.5439   -8.2147    0.0000 N   0  0  0  0  0  0  0  0  0  0  0  0
  -14.9435   -8.7543    0.0000 C   0  0  0  0  0  0  0  0  0  0  0  0
  -16.4432   -8.7827    0.0000 C   0  0  0  0  0  0  0  0  0  0  0  0
  -17.2176   -7.4981    0.0000 C   0  0  0  0  0  0  0  0  0  0  0  0
  -18.7174   -7.5264    0.0000 C   0  0  0  0  0  0  0  0  0  0  0  0
  -19.4918   -6.2418    0.0000 N   0  0  0  0  0  0  0  0  0  0  0  0
  -19.4427   -8.8394    0.0000 O   0  0  0  0  0  0  0  0  0  0  0  0
  -15.1760  -10.2362    0.0000 C   0  0  0  0  0  0  0  0  0  0  0  0
  -14.1325  -11.3137    0.0000 O   0  0  0  0  0  0  0  0  0  0  0  0
  -16.5756  -10.7758    0.0000 N   0  0  0  0  0  0  0  0  0  0  0  0
  -16.8081  -12.2577    0.0000 C   0  0  0  0  0  0  0  0  0  0  0  0
  -16.5197  -13.7297    0.0000 C   0  0  0  0  0  0  0  0  0  0  0  0
  -17.6504  -14.7154    0.0000 C   0  0  0  0  0  0  0  0  0  0  0  0
  -17.3620  -16.1874    0.0000 N   0  0  0  0  0  0  0  0  0  0  0  0
  -19.1180  -14.4057    0.0000 O   0  0  0  0  0  0  0  0  0  0  0  0
  -18.2077  -12.7972    0.0000 C   0  0  0  0  0  0  0  0  0  0  0  0
  -18.6191  -14.2397    0.0000 O   0  0  0  0  0  0  0  0  0  0  0  0
  -19.3748  -11.8550    0.0000 O   0  0  0  0  0  0  0  0  0  0  0  0
   21.7831   -0.5479    0.0000 H   0  0  0  0  0  0  0  0  0  0  0  0
   21.8371   -5.0402    0.0000 H   0  0  0  0  0  0  0  0  0  0  0  0
   24.3911   -6.6141    0.0000 H   0  0  0  0  0  0  0  0  0  0  0  0
   24.1991   -0.6507    0.0000 H   0  0  0  0  0  0  0  0  0  0  0  0
   31.1961    0.8842    0.0000 H   0  0  0  0  0  0  0  0  0  0  0  0
   32.1302   -4.2273    0.0000 H   0  0  0  0  0  0  0  0  0  0  0  0
   29.1791   -4.7666    0.0000 H   0  0  0  0  0  0  0  0  0  0  0  0
   34.1100   -2.5450    0.0000 H   0  0  0  0  0  0  0  0  0  0  0  0
   24.2853   -3.0198    0.0000 H   0  0  0  0  0  0  0  0  0  0  0  0
   22.3209   -0.5518    0.0000 H   0  0  0  0  0  0  0  0  0  0  0  0
   26.3024    2.6310    0.0000 H   0  0  0  0  0  0  0  0  0  0  0  0
   23.8555    3.5044    0.0000 H   0  0  0  0  0  0  0  0  0  0  0  0
   19.3692   -0.4675    0.0000 H   0  0  0  0  0  0  0  0  0  0  0  0
   18.9370   -3.8555    0.0000 H   0  0  0  0  0  0  0  0  0  0  0  0
   17.0094   -3.8002    0.0000 H   0  0  0  0  0  0  0  0  0  0  0  0
   17.7259   -0.7714    0.0000 H   0  0  0  0  0  0  0  0  0  0  0  0
   15.7983   -0.7160    0.0000 H   0  0  0  0  0  0  0  0  0  0  0  0
   14.1752   -0.3184    0.0000 H   0  0  0  0  0  0  0  0  0  0  0  0
   12.3398   -1.1065    0.0000 H   0  0  0  0  0  0  0  0  0  0  0  0
   12.5196   -4.5745    0.0000 H   0  0  0  0  0  0  0  0  0  0  0  0
   16.2943   -4.5425    0.0000 H   0  0  0  0  0  0  0  0  0  0  0  0
   16.5470   -2.7760    0.0000 H   0  0  0  0  0  0  0  0  0  0  0  0
   15.1578   -1.9945    0.0000 H   0  0  0  0  0  0  0  0  0  0  0  0
   14.3554   -6.6236    0.0000 H   0  0  0  0  0  0  0  0  0  0  0  0
   12.7689   -5.5274    0.0000 H   0  0  0  0  0  0  0  0  0  0  0  0
   16.1568   -6.8565    0.0000 H   0  0  0  0  0  0  0  0  0  0  0  0
   17.1685   -5.2149    0.0000 H   0  0  0  0  0  0  0  0  0  0  0  0
   16.2621   -4.0485    0.0000 H   0  0  0  0  0  0  0  0  0  0  0  0
   10.9505   -0.1777    0.0000 H   0  0  0  0  0  0  0  0  0  0  0  0
    8.9562   -0.2905    0.0000 H   0  0  0  0  0  0  0  0  0  0  0  0
    9.3425   -4.7129    0.0000 H   0  0  0  0  0  0  0  0  0  0  0  0
    7.9015   -3.4315    0.0000 H   0  0  0  0  0  0  0  0  0  0  0  0
   12.3387   -3.2983    0.0000 H   0  0  0  0  0  0  0  0  0  0  0  0
   11.2592   -2.0719    0.0000 H   0  0  0  0  0  0  0  0  0  0  0  0
   13.1329   -6.7302    0.0000 H   0  0  0  0  0  0  0  0  0  0  0  0
   14.1149   -4.4349    0.0000 H   0  0  0  0  0  0  0  0  0  0  0  0
    7.9684    1.0575    0.0000 H   0  0  0  0  0  0  0  0  0  0  0  0
    6.0558    1.6335    0.0000 H   0  0  0  0  0  0  0  0  0  0  0  0
    4.9062   -2.6543    0.0000 H   0  0  0  0  0  0  0  0  0  0  0  0
    3.9904   -0.9573    0.0000 H   0  0  0  0  0  0  0  0  0  0  0  0
    5.6656    3.0718    0.0000 H   0  0  0  0  0  0  0  0  0  0  0  0
    4.3421    2.0038    0.0000 H   0  0  0  0  0  0  0  0  0  0  0  0
    3.8266    0.6774    0.0000 H   0  0  0  0  0  0  0  0  0  0  0  0
    3.9086    0.0966    0.0000 H   0  0  0  0  0  0  0  0  0  0  0  0
    3.3284   -0.8268    0.0000 H   0  0  0  0  0  0  0  0  0  0  0  0
    3.2519   -0.9761    0.0000 H   0  0  0  0  0  0  0  0  0  0  0  0
    2.4008   -2.3093    0.0000 H   0  0  0  0  0  0  0  0  0  0  0  0
    1.9171   -3.1706    0.0000 H   0  0  0  0  0  0  0  0  0  0  0  0
    5.6641    3.5696    0.0000 H   0  0  0  0  0  0  0  0  0  0  0  0
    5.3246    5.1678    0.0000 H   0  0  0  0  0  0  0  0  0  0  0  0
    3.5598    5.4319    0.0000 H   0  0  0  0  0  0  0  0  0  0  0  0
    3.8665    6.6313    0.0000 H   0  0  0  0  0  0  0  0  0  0  0  0
    3.2181    7.4198    0.0000 H   0  0  0  0  0  0  0  0  0  0  0  0
    2.5047   10.4244    0.0000 H   0  0  0  0  0  0  0  0  0  0  0  0
    1.0584    9.6645    0.0000 H   0  0  0  0  0  0  0  0  0  0  0  0
    4.0891    7.5716    0.0000 H   0  0  0  0  0  0  0  0  0  0  0  0
    5.9709   10.7153    0.0000 H   0  0  0  0  0  0  0  0  0  0  0  0
    4.6402   11.9042    0.0000 H   0  0  0  0  0  0  0  0  0  0  0  0
    3.1142   10.9793    0.0000 H   0  0  0  0  0  0  0  0  0  0  0  0
    6.4951    9.5766    0.0000 H   0  0  0  0  0  0  0  0  0  0  0  0
    6.5331    7.7925    0.0000 H   0  0  0  0  0  0  0  0  0  0  0  0
    4.6680    7.3026    0.0000 H   0  0  0  0  0  0  0  0  0  0  0  0
    0.5251   10.9541    0.0000 H   0  0  0  0  0  0  0  0  0  0  0  0
   -0.3963   11.3103    0.0000 H   0  0  0  0  0  0  0  0  0  0  0  0
   -0.6461   12.8750    0.0000 H   0  0  0  0  0  0  0  0  0  0  0  0
   -2.3610   13.3685    0.0000 H   0  0  0  0  0  0  0  0  0  0  0  0
   -3.3343   11.8729    0.0000 H   0  0  0  0  0  0  0  0  0  0  0  0
   -4.2980   12.6501    0.0000 H   0  0  0  0  0  0  0  0  0  0  0  0
   -5.4478   12.4709    0.0000 H   0  0  0  0  0  0  0  0  0  0  0  0
   -8.2134   13.1402    0.0000 H   0  0  0  0  0  0  0  0  0  0  0  0
   -8.2236   11.3558    0.0000 H   0  0  0  0  0  0  0  0  0  0  0  0
   -3.9274   12.8975    0.0000 H   0  0  0  0  0  0  0  0  0  0  0  0
   -3.0424   15.5932    0.0000 H   0  0  0  0  0  0  0  0  0  0  0  0
   -4.9777   17.8855    0.0000 H   0  0  0  0  0  0  0  0  0  0  0  0
   -7.9306   17.3555    0.0000 H   0  0  0  0  0  0  0  0  0  0  0  0
   -8.9480   14.5334    0.0000 H   0  0  0  0  0  0  0  0  0  0  0  0
   -9.4545   11.4886    0.0000 H   0  0  0  0  0  0  0  0  0  0  0  0
  -10.3249   10.7163    0.0000 H   0  0  0  0  0  0  0  0  0  0  0  0
  -13.0133    9.7841    0.0000 H   0  0  0  0  0  0  0  0  0  0  0  0
  -12.0572    8.2774    0.0000 H   0  0  0  0  0  0  0  0  0  0  0  0
   -9.2765   11.8971    0.0000 H   0  0  0  0  0  0  0  0  0  0  0  0
   -9.9894   14.6433    0.0000 H   0  0  0  0  0  0  0  0  0  0  0  0
  -12.8568   15.5254    0.0000 H   0  0  0  0  0  0  0  0  0  0  0  0
  -15.0544   13.4832    0.0000 H   0  0  0  0  0  0  0  0  0  0  0  0
  -14.3845   10.5589    0.0000 H   0  0  0  0  0  0  0  0  0  0  0  0
  -13.2577    7.5660    0.0000 H   0  0  0  0  0  0  0  0  0  0  0  0
  -13.4792    6.6034    0.0000 H   0  0  0  0  0  0  0  0  0  0  0  0
  -15.2368    4.3658    0.0000 H   0  0  0  0  0  0  0  0  0  0  0  0
  -13.6179    3.6152    0.0000 H   0  0  0  0  0  0  0  0  0  0  0  0
  -16.4370    5.7293    0.0000 H   0  0  0  0  0  0  0  0  0  0  0  0
  -14.2501    2.5507    0.0000 H   0  0  0  0  0  0  0  0  0  0  0  0
  -13.8501    1.6115    0.0000 H   0  0  0  0  0  0  0  0  0  0  0  0
  -14.0122   -1.4724    0.0000 H   0  0  0  0  0  0  0  0  0  0  0  0
  -12.4103   -1.1508    0.0000 H   0  0  0  0  0  0  0  0  0  0  0  0
  -16.2050    1.0115    0.0000 H   0  0  0  0  0  0  0  0  0  0  0  0
  -14.7286    1.7112    0.0000 H   0  0  0  0  0  0  0  0  0  0  0  0
  -16.4780   -2.2906    0.0000 H   0  0  0  0  0  0  0  0  0  0  0  0
  -14.7532   -1.8331    0.0000 H   0  0  0  0  0  0  0  0  0  0  0  0
  -17.8663    0.8301    0.0000 H   0  0  0  0  0  0  0  0  0  0  0  0
  -20.8565   -2.5327    0.0000 H   0  0  0  0  0  0  0  0  0  0  0  0
  -20.3322    0.0119    0.0000 H   0  0  0  0  0  0  0  0  0  0  0  0
  -18.7710   -4.3723    0.0000 H   0  0  0  0  0  0  0  0  0  0  0  0
  -16.4492   -3.4410    0.0000 H   0  0  0  0  0  0  0  0  0  0  0  0
  -12.3666   -2.3880    0.0000 H   0  0  0  0  0  0  0  0  0  0  0  0
   -8.7706   -5.0554    0.0000 H   0  0  0  0  0  0  0  0  0  0  0  0
   -9.9311   -4.5670    0.0000 H   0  0  0  0  0  0  0  0  0  0  0  0
   -7.3022   -5.6674    0.0000 H   0  0  0  0  0  0  0  0  0  0  0  0
   -8.3535   -5.3775    0.0000 H   0  0  0  0  0  0  0  0  0  0  0  0
   -5.5638   -5.9604    0.0000 H   0  0  0  0  0  0  0  0  0  0  0  0
   -6.8107   -5.7850    0.0000 H   0  0  0  0  0  0  0  0  0  0  0  0
   -3.8014   -5.9192    0.0000 H   0  0  0  0  0  0  0  0  0  0  0  0
   -5.0589   -5.9829    0.0000 H   0  0  0  0  0  0  0  0  0  0  0  0
   -2.0786   -5.5452    0.0000 H   0  0  0  0  0  0  0  0  0  0  0  0
   -3.3014   -5.8458    0.0000 H   0  0  0  0  0  0  0  0  0  0  0  0
   -0.3476   -4.7055    0.0000 H   0  0  0  0  0  0  0  0  0  0  0  0
   -1.6015   -5.3785    0.0000 H   0  0  0  0  0  0  0  0  0  0  0  0
    0.5715   -4.3437    0.0000 H   0  0  0  0  0  0  0  0  0  0  0  0
  -12.1488   -4.4814    0.0000 H   0  0  0  0  0  0  0  0  0  0  0  0
  -12.9767   -3.0729    0.0000 H   0  0  0  0  0  0  0  0  0  0  0  0
  -12.0267   -1.7436    0.0000 H   0  0  0  0  0  0  0  0  0  0  0  0
  -12.9526   -3.9184    0.0000 H   0  0  0  0  0  0  0  0  0  0  0  0
  -10.4121   -6.1649    0.0000 H   0  0  0  0  0  0  0  0  0  0  0  0
  -10.6982   -8.8460    0.0000 H   0  0  0  0  0  0  0  0  0  0  0  0
  -10.2239   -7.1257    0.0000 H   0  0  0  0  0  0  0  0  0  0  0  0
  -14.0410   -7.8805    0.0000 H   0  0  0  0  0  0  0  0  0  0  0  0
  -13.3243  -11.3531    0.0000 H   0  0  0  0  0  0  0  0  0  0  0  0
  -11.6913  -11.4077    0.0000 H   0  0  0  0  0  0  0  0  0  0  0  0
  -11.0108   -9.7581    0.0000 H   0  0  0  0  0  0  0  0  0  0  0  0
  -15.5141   -8.5587    0.0000 H   0  0  0  0  0  0  0  0  0  0  0  0
  -14.8559  -10.5161    0.0000 H   0  0  0  0  0  0  0  0  0  0  0  0
  -13.5416  -10.5601    0.0000 H   0  0  0  0  0  0  0  0  0  0  0  0
  -12.6395   -9.4114    0.0000 H   0  0  0  0  0  0  0  0  0  0  0  0
  -15.0503   -7.2581    0.0000 H   0  0  0  0  0  0  0  0  0  0  0  0
  -17.8981   -9.1476    0.0000 H   0  0  0  0  0  0  0  0  0  0  0  0
  -16.7017  -10.2603    0.0000 H   0  0  0  0  0  0  0  0  0  0  0  0
  -17.5060   -6.0260    0.0000 H   0  0  0  0  0  0  0  0  0  0  0  0
  -15.8943   -6.7919    0.0000 H   0  0  0  0  0  0  0  0  0  0  0  0
  -20.9915   -6.2701    0.0000 H   0  0  0  0  0  0  0  0  0  0  0  0
  -18.6118   -5.0270    0.0000 H   0  0  0  0  0  0  0  0  0  0  0  0
  -17.8488   -9.9828    0.0000 H   0  0  0  0  0  0  0  0  0  0  0  0
  -15.3084  -12.2293    0.0000 H   0  0  0  0  0  0  0  0  0  0  0  0
  -15.7453  -15.0143    0.0000 H   0  0  0  0  0  0  0  0  0  0  0  0
  -15.1201  -13.1901    0.0000 H   0  0  0  0  0  0  0  0  0  0  0  0
  -18.4927  -17.1732    0.0000 H   0  0  0  0  0  0  0  0  0  0  0  0
  -15.9430  -16.6737    0.0000 H   0  0  0  0  0  0  0  0  0  0  0  0
  1  2  1  0
  2  3  1  0
  3  4  2  0
  4  5  1  0
  5  6  2  0
  6  7  1  0
  7  8  2  0
  7  9  1  0
  9 10  1  0
 10 11  1  0
 11 12  2  0
  9 13  1  0
 13 14  1  0
 14 15  2  0
 15 16  1  0
 16 17  2  0
 17 18  1  0
 16 19  1  0
 14 20  1  0
 20 21  1  0
 21 22  2  0
 22 23  1  0
 23 24  2  0
 24 25  1  0
 25 26  2  0
 25 27  1  0
  1 28  2  0
  1 29  1  0
 29 30  1  0
 30 31  1  0
 31 32  1  0
 32 33  2  0
 32 34  1  0
 34 35  1  0
 35 36  1  0
 36 37  1  0
 36 38  1  0
 38 39  1  0
 35 40  1  0
 40 41  2  0
 40 42  1  0
 42 43  1  0
 43 44  1  0
 44 45  1  0
 45 46  1  0
 46 47  1  0
 46 48  2  0
 43 49  1  0
 49 50  2  0
 49 51  1  0
 51 52  1  0
 52 53  1  0
 53 54  1  0
 54 55  2  0
 54 56  1  0
 52 57  1  0
 57 58  2  0
 57 59  1  0
 60 59  1  1
 60 61  1  0
 61 62  1  0
 62 63  1  0
 63 64  1  0
 60 65  1  0
 60 66  1  0
 66 67  2  0
 66 68  1  0
 68 69  1  0
 69 70  1  0
 70 71  1  0
 71 72  1  0
 71 73  1  0
 69 74  1  0
 74 75  2  0
 74 76  1  0
 76 77  1  0
 77 78  1  0
 77 79  1  0
 79 80  2  0
 79 81  1  0
 81 82  1  0
 82 83  1  0
 83 84  1  0
 84 85  2  0
 85 86  1  0
 86 87  2  0
 87 88  1  0
 88 89  2  0
 82 90  1  0
 90 91  2  0
 90 92  1  0
 92 93  1  0
 93 94  1  0
 94 95  1  0
 95 96  2  0
 96 97  1  0
 97 98  2  0
 98 99  1  0
 99100  2  0
 93101  1  0
101102  2  0
101103  1  0
103104  1  0
104105  1  0
105106  1  0
104107  1  0
107108  2  0
107109  1  0
109110  1  0
110111  1  0
111112  1  0
112113  1  0
113114  1  0
114115  1  0
115116  2  3
115117  1  0
110118  1  0
118119  2  0
118120  1  0
120121  1  0
121122  1  0
122123  1  0
123124  1  0
124125  1  0
125126  1  0
126127  1  0
127128  1  0
121129  1  0
121130  1  6
130131  2  0
130132  1  0
132133  1  0
133134  1  0
134135  1  0
135136  1  0
135137  1  0
133138  1  0
138139  2  0
138140  1  0
140141  1  0
141142  1  0
142143  1  0
143144  1  0
144145  1  0
144146  2  0
141147  1  0
147148  2  0
147149  1  0
149150  1  0
150151  1  0
151152  1  0
152153  1  0
152154  2  0
150155  1  0
155156  2  0
155157  1  0
  8  3  1  0
 89 84  1  0
100 95  1  0
 11  6  1  0
 18 13  2  0
 64128  2  0
 22  9  1  0
 26 21  1  0
  2158  1  0
  4159  1  0
  5160  1  0
  8161  1  0
 15162  1  0
 17163  1  0
 18164  1  0
 19165  1  0
 23166  1  0
 24167  1  0
 26168  1  0
 27169  1  0
 29170  1  0
 30171  1  0
 30172  1  0
 31173  1  0
 31174  1  0
 34175  1  0
 35176  1  1
 36177  1  6
 37178  1  0
 37179  1  0
 37180  1  0
 38181  1  0
 38182  1  0
 39183  1  0
 39184  1  0
 39185  1  0
 42186  1  0
 43187  1  1
 44188  1  0
 44189  1  0
 45190  1  0
 45191  1  0
 47192  1  0
 47193  1  0
 51194  1  0
 52195  1  1
 53196  1  0
 53197  1  0
 59198  1  0
 61199  1  0
 61200  1  0
 62201  1  0
 62202  1  0
 63203  1  0
 63204  1  0
 64205  1  0
 65206  1  0
 65207  1  0
 65208  1  0
 68209  1  0
 69210  1  6
 70211  1  0
 70212  1  0
 71213  1  0
 72214  1  0
 72215  1  0
 72216  1  0
 73217  1  0
 73218  1  0
 73219  1  0
 76220  1  0
 77221  1  6
 78222  1  0
 78223  1  0
 78224  1  0
 81225  1  0
 82226  1  6
 83227  1  0
 83228  1  0
 85229  1  0
 86230  1  0
 87231  1  0
 88232  1  0
 89233  1  0
 92234  1  0
 93235  1  6
 94236  1  0
 94237  1  0
 96238  1  0
 97239  1  0
 98240  1  0
 99241  1  0
100242  1  0
103243  1  0
104244  1  6
105245  1  0
105246  1  0
106247  1  0
109248  1  0
110249  1  6
111250  1  0
111251  1  0
112252  1  0
112253  1  0
113254  1  0
113255  1  0
114256  1  0
116257  1  0
116258  1  0
117259  1  0
117260  1  0
120261  1  0
122262  1  0
122263  1  0
123264  1  0
123265  1  0
124266  1  0
124267  1  0
125268  1  0
125269  1  0
126270  1  0
126271  1  0
127272  1  0
127273  1  0
128274  1  0
129275  1  0
129276  1  0
129277  1  0
132278  1  0
133279  1  1
134280  1  0
134281  1  0
135282  1  0
136283  1  0
136284  1  0
136285  1  0
137286  1  0
137287  1  0
137288  1  0
140289  1  0
141290  1  6
142291  1  0
142292  1  0
143293  1  0
143294  1  0
145295  1  0
145296  1  0
149297  1  0
150298  1  1
151299  1  0
151300  1  0
153301  1  0
153302  1  0
M  CHG  3  56  -1 116   1 157  -1
M  END
