
     RDKit          2D

344351  0  0  0  0  0  0  0  0999 V2000
   37.4623   -1.5159    0.0000 C   0  0  0  0  0  0  0  0  0  0  0  0
   38.7527   -0.7511    0.0000 N   0  0  0  0  0  0  0  0  0  0  0  0
   40.0602   -1.4862    0.0000 C   0  0  0  0  0  0  0  0  0  0  0  0
   40.0773   -2.9861    0.0000 C   0  0  0  0  0  0  0  0  0  0  0  0
   41.3848   -3.7212    0.0000 C   0  0  0  0  0  0  0  0  0  0  0  0
   42.6752   -2.9564    0.0000 C   0  0  0  0  0  0  0  0  0  0  0  0
   42.6581   -1.4565    0.0000 C   0  0  0  0  0  0  0  0  0  0  0  0
   41.3506   -0.7214    0.0000 C   0  0  0  0  0  0  0  0  0  0  0  0
   44.0793   -0.9768    0.0000 C   0  0  0  0  0  0  0  0  0  0  0  0
   44.9748   -2.1801    0.0000 O   0  0  0  0  0  0  0  0  0  0  0  0
   44.1070   -3.4036    0.0000 C   0  0  0  0  0  0  0  0  0  0  0  0
   44.5868   -4.8249    0.0000 O   0  0  0  0  0  0  0  0  0  0  0  0
   45.5429   -0.6482    0.0000 C   0  0  0  0  0  0  0  0  0  0  0  0
   45.9901    0.7836    0.0000 C   0  0  0  0  0  0  0  0  0  0  0  0
   47.4537    1.1122    0.0000 C   0  0  0  0  0  0  0  0  0  0  0  0
   48.4700    0.0090    0.0000 C   0  0  0  0  0  0  0  0  0  0  0  0
   48.0228   -1.4228    0.0000 C   0  0  0  0  0  0  0  0  0  0  0  0
   46.5592   -1.7513    0.0000 C   0  0  0  0  0  0  0  0  0  0  0  0
   49.9336    0.3376    0.0000 O   0  0  0  0  0  0  0  0  0  0  0  0
   44.9737    1.8868    0.0000 O   0  0  0  0  0  0  0  0  0  0  0  0
   43.5102    1.5582    0.0000 C   0  0  0  0  0  0  0  0  0  0  0  0
   43.0630    0.1264    0.0000 C   0  0  0  0  0  0  0  0  0  0  0  0
   41.8081    0.4660    0.0000 C   0  0  0  0  0  0  0  0  0  0  0  0
   41.2660    1.0544    0.0000 C   0  0  0  0  0  0  0  0  0  0  0  0
   41.5045    1.8180    0.0000 C   0  0  0  0  0  0  0  0  0  0  0  0
   42.2851    1.9932    0.0000 C   0  0  0  0  0  0  0  0  0  0  0  0
   40.0139    3.4360    0.0000 O   0  0  0  0  0  0  0  0  0  0  0  0
   37.4794   -3.0158    0.0000 S   0  0  0  0  0  0  0  0  0  0  0  0
   36.1548   -0.7807    0.0000 N   0  0  0  0  0  0  0  0  0  0  0  0
   34.8644   -1.5455    0.0000 C   0  0  0  0  0  0  0  0  0  0  0  0
   33.5569   -0.8104    0.0000 C   0  0  0  0  0  0  0  0  0  0  0  0
   32.2665   -1.5752    0.0000 O   0  0  0  0  0  0  0  0  0  0  0  0
   30.9590   -0.8401    0.0000 C   0  0  0  0  0  0  0  0  0  0  0  0
   29.6686   -1.6048    0.0000 C   0  0  0  0  0  0  0  0  0  0  0  0
   28.3611   -0.8697    0.0000 O   0  0  0  0  0  0  0  0  0  0  0  0
   27.0707   -1.6345    0.0000 C   0  0  0  0  0  0  0  0  0  0  0  0
   25.7632   -0.8994    0.0000 C   0  0  0  0  0  0  0  0  0  0  0  0
   24.4728   -1.6641    0.0000 O   0  0  0  0  0  0  0  0  0  0  0  0
   23.1652   -0.9290    0.0000 C   0  0  0  0  0  0  0  0  0  0  0  0
   21.8749   -1.6938    0.0000 C   0  0  0  0  0  0  0  0  0  0  0  0
   20.5673   -0.9587    0.0000 O   0  0  0  0  0  0  0  0  0  0  0  0
   19.2769   -1.7235    0.0000 C   0  0  0  0  0  0  0  0  0  0  0  0
   17.9694   -0.9883    0.0000 C   0  0  0  0  0  0  0  0  0  0  0  0
   16.6790   -1.7531    0.0000 O   0  0  0  0  0  0  0  0  0  0  0  0
   15.3715   -1.0180    0.0000 C   0  0  0  0  0  0  0  0  0  0  0  0
   14.0811   -1.7828    0.0000 C   0  0  0  0  0  0  0  0  0  0  0  0
   12.7736   -1.0477    0.0000 O   0  0  0  0  0  0  0  0  0  0  0  0
   11.4832   -1.8124    0.0000 C   0  0  0  0  0  0  0  0  0  0  0  0
   10.1757   -1.0773    0.0000 C   0  0  0  0  0  0  0  0  0  0  0  0
    8.8853   -1.8421    0.0000 C   0  0  0  0  0  0  0  0  0  0  0  0
    9.0870   -2.6133    0.0000 O   0  0  0  0  0  0  0  0  0  0  0  0
    7.5778   -1.1070    0.0000 N   0  0  0  0  0  0  0  0  0  0  0  0
    6.2874   -1.8718    0.0000 C   0  0  0  0  0  0  0  0  0  0  0  0
    7.2647   -3.0097    0.0000 C   0  0  0  0  0  0  0  0  0  0  0  0
    8.7388   -2.7324    0.0000 C   0  0  0  0  0  0  0  0  0  0  0  0
    7.7937   -4.4133    0.0000 C   0  0  0  0  0  0  0  0  0  0  0  0
    9.2738   -4.6569    0.0000 C   0  0  0  0  0  0  0  0  0  0  0  0
    4.8133   -2.1491    0.0000 C   0  0  0  0  0  0  0  0  0  0  0  0
    4.6736   -3.6426    0.0000 O   0  0  0  0  0  0  0  0  0  0  0  0
    3.8360   -1.0111    0.0000 N   0  0  0  0  0  0  0  0  0  0  0  0
    2.3619   -1.2884    0.0000 C   0  0  0  0  0  0  0  0  0  0  0  0
    2.8910   -2.6920    0.0000 C   0  0  0  0  0  0  0  0  0  0  0  0
    4.3711   -2.9356    0.0000 C   0  0  0  0  0  0  0  0  0  0  0  0
    4.9002   -4.3392    0.0000 C   0  0  0  0  0  0  0  0  0  0  0  0
    6.2773   -4.9337    0.0000 N   0  0  0  0  0  0  0  0  0  0  0  0
    3.9492   -5.4992    0.0000 O   0  0  0  0  0  0  0  0  0  0  0  0
    0.8818   -1.0448    0.0000 C   0  0  0  0  0  0  0  0  0  0  0  0
    0.2398   -2.4005    0.0000 O   0  0  0  0  0  0  0  0  0  0  0  0
    0.3527    0.3588    0.0000 N   0  0  0  0  0  0  0  0  0  0  0  0
   -1.1274    0.6024    0.0000 C   0  0  0  0  0  0  0  0  0  0  0  0
   -1.1102   -0.8975    0.0000 C   0  0  0  0  0  0  0  0  0  0  0  0
    0.1973   -1.6327    0.0000 C   0  0  0  0  0  0  0  0  0  0  0  0
    0.2144   -3.1326    0.0000 O   0  0  0  0  0  0  0  0  0  0  0  0
    1.6344   -1.2029    0.0000 O   0  0  0  0  0  0  0  0  0  0  0  0
   -2.4349    1.3375    0.0000 C   0  0  0  0  0  0  0  0  0  0  0  0
   -3.5019    0.2832    0.0000 O   0  0  0  0  0  0  0  0  0  0  0  0
   -2.4520    2.8374    0.0000 N   0  0  0  0  0  0  0  0  0  0  0  0
   -3.7595    3.5725    0.0000 C   0  0  0  0  0  0  0  0  0  0  0  0
   -3.8376    2.0745    0.0000 C   0  0  0  0  0  0  0  0  0  0  0  0
   -4.1977    0.6184    0.0000 C   0  0  0  0  0  0  0  0  0  0  0  0
   -4.8269   -0.7433    0.0000 C   0  0  0  0  0  0  0  0  0  0  0  0
   -5.7024   -1.9612    0.0000 C   0  0  0  0  0  0  0  0  0  0  0  0
   -2.5202    4.4176    0.0000 C   0  0  0  0  0  0  0  0  0  0  0  0
   -3.9664    5.0582    0.0000 C   0  0  0  0  0  0  0  0  0  0  0  0
   -2.5603    5.5806    0.0000 O   0  0  0  0  0  0  0  0  0  0  0  0
   -4.4507    6.4778    0.0000 N   0  0  0  0  0  0  0  0  0  0  0  0
   -5.1949    7.7802    0.0000 C   0  0  0  0  0  0  0  0  0  0  0  0
   -4.6092    9.1611    0.0000 C   0  0  0  0  0  0  0  0  0  0  0  0
   -3.1205    9.3444    0.0000 C   0  0  0  0  0  0  0  0  0  0  0  0
   -2.5348   10.7253    0.0000 C   0  0  0  0  0  0  0  0  0  0  0  0
   -1.6588    9.0074    0.0000 C   0  0  0  0  0  0  0  0  0  0  0  0
   -6.1721    8.9182    0.0000 C   0  0  0  0  0  0  0  0  0  0  0  0
   -5.2717   10.1179    0.0000 O   0  0  0  0  0  0  0  0  0  0  0  0
   -7.3471    9.8507    0.0000 N   0  0  0  0  0  0  0  0  0  0  0  0
   -8.6772   10.5439    0.0000 C   0  0  0  0  0  0  0  0  0  0  0  0
   -8.9311   12.0223    0.0000 C   0  0  0  0  0  0  0  0  0  0  0  0
  -10.1146   10.9729    0.0000 C   0  0  0  0  0  0  0  0  0  0  0  0
  -10.0057   12.4690    0.0000 O   0  0  0  0  0  0  0  0  0  0  0  0
  -11.6071   11.1222    0.0000 N   0  0  0  0  0  0  0  0  0  0  0  0
  -13.1010   10.9862    0.0000 C   0  0  0  0  0  0  0  0  0  0  0  0
  -14.1138   12.0926    0.0000 C   0  0  0  0  0  0  0  0  0  0  0  0
  -13.6621   13.5230    0.0000 C   0  0  0  0  0  0  0  0  0  0  0  0
  -12.1975   13.8469    0.0000 C   0  0  0  0  0  0  0  0  0  0  0  0
  -11.7457   15.2773    0.0000 C   0  0  0  0  0  0  0  0  0  0  0  0
  -12.7586   16.3837    0.0000 C   0  0  0  0  0  0  0  0  0  0  0  0
  -14.2232   16.0598    0.0000 C   0  0  0  0  0  0  0  0  0  0  0  0
  -14.6749   14.6294    0.0000 C   0  0  0  0  0  0  0  0  0  0  0  0
  -14.5421   10.5700    0.0000 C   0  0  0  0  0  0  0  0  0  0  0  0
  -15.2593   11.8875    0.0000 O   0  0  0  0  0  0  0  0  0  0  0  0
  -15.8784    9.8886    0.0000 N   0  0  0  0  0  0  0  0  0  0  0  0
  -17.0616    8.9667    0.0000 C   0  0  0  0  0  0  0  0  0  0  0  0
  -18.5118    9.3498    0.0000 C   0  0  0  0  0  0  0  0  0  0  0  0
  -18.9051   10.7974    0.0000 C   0  0  0  0  0  0  0  0  0  0  0  0
  -17.8481   11.8617    0.0000 C   0  0  0  0  0  0  0  0  0  0  0  0
  -18.2414   13.3092    0.0000 C   0  0  0  0  0  0  0  0  0  0  0  0
  -19.6916   13.6924    0.0000 C   0  0  0  0  0  0  0  0  0  0  0  0
  -20.7486   12.6281    0.0000 C   0  0  0  0  0  0  0  0  0  0  0  0
  -20.3553   11.1805    0.0000 C   0  0  0  0  0  0  0  0  0  0  0  0
  -18.0489    7.8374    0.0000 C   0  0  0  0  0  0  0  0  0  0  0  0
  -19.3645    8.5579    0.0000 O   0  0  0  0  0  0  0  0  0  0  0  0
  -18.8047    6.5417    0.0000 N   0  0  0  0  0  0  0  0  0  0  0  0
  -19.3016    5.1264    0.0000 C   0  0  0  0  0  0  0  0  0  0  0  0
  -20.7288    4.6647    0.0000 C   0  0  0  0  0  0  0  0  0  0  0  0
  -21.8422    5.6698    0.0000 O   0  0  0  0  0  0  0  0  0  0  0  0
  -19.5217    3.6427    0.0000 C   0  0  0  0  0  0  0  0  0  0  0  0
  -21.0180    3.5375    0.0000 O   0  0  0  0  0  0  0  0  0  0  0  0
  -19.4570    2.1441    0.0000 N   0  0  0  0  0  0  0  0  0  0  0  0
  -19.1098    0.6848    0.0000 C   0  0  0  0  0  0  0  0  0  0  0  0
  -20.0608   -0.4752    0.0000 C   0  0  0  0  0  0  0  0  0  0  0  0
  -21.5409   -0.2316    0.0000 C   0  0  0  0  0  0  0  0  0  0  0  0
  -22.4919   -1.3916    0.0000 C   0  0  0  0  0  0  0  0  0  0  0  0
  -23.9720   -1.1480    0.0000 N   0  0  0  0  0  0  0  0  0  0  0  0
  -24.9230   -2.3080    0.0000 C   0  0  0  0  0  0  0  0  0  0  0  0
  -26.4031   -2.0644    0.0000 N   0  0  0  0  0  0  0  0  0  0  0  0
  -24.3939   -3.7116    0.0000 N   0  0  0  0  0  0  0  0  0  0  0  0
  -18.4928   -0.6824    0.0000 C   0  0  0  0  0  0  0  0  0  0  0  0
  -19.6947   -1.5798    0.0000 O   0  0  0  0  0  0  0  0  0  0  0  0
  -17.6281   -1.9082    0.0000 N   0  0  0  0  0  0  0  0  0  0  0  0
  -16.5471   -2.9481    0.0000 C   0  0  0  0  0  0  0  0  0  0  0  0
  -15.2889   -3.7647    0.0000 C   0  0  0  0  0  0  0  0  0  0  0  0
  -13.8988   -4.3283    0.0000 C   0  0  0  0  0  0  0  0  0  0  0  0
  -12.4272   -4.6188    0.0000 C   0  0  0  0  0  0  0  0  0  0  0  0
  -10.9272   -4.6255    0.0000 C   0  0  0  0  0  0  0  0  0  0  0  0
   -9.4531   -4.3481    0.0000 C   0  0  0  0  0  0  0  0  0  0  0  0
   -8.0581   -3.7968    0.0000 C   0  0  0  0  0  0  0  0  0  0  0  0
   -6.7926   -2.9915    0.0000 C   0  0  0  0  0  0  0  0  0  0  0  0
  -17.9590   -3.4548    0.0000 C   0  0  0  0  0  0  0  0  0  0  0  0
  -16.7200   -4.4381    0.0000 C   0  0  0  0  0  0  0  0  0  0  0  0
  -15.7684   -5.5976    0.0000 O   0  0  0  0  0  0  0  0  0  0  0  0
  -18.0969   -5.0334    0.0000 N   0  0  0  0  0  0  0  0  0  0  0  0
  -18.2697   -6.5234    0.0000 C   0  0  0  0  0  0  0  0  0  0  0  0
  -17.9226   -7.9827    0.0000 C   0  0  0  0  0  0  0  0  0  0  0  0
  -19.0128   -9.0129    0.0000 C   0  0  0  0  0  0  0  0  0  0  0  0
  -18.6657  -10.4722    0.0000 C   0  0  0  0  0  0  0  0  0  0  0  0
  -20.3896   -9.6082    0.0000 C   0  0  0  0  0  0  0  0  0  0  0  0
  -19.6466   -7.1186    0.0000 C   0  0  0  0  0  0  0  0  0  0  0  0
  -20.8505   -6.2239    0.0000 O   0  0  0  0  0  0  0  0  0  0  0  0
  -19.8195   -8.6087    0.0000 N   0  0  0  0  0  0  0  0  0  0  0  0
  -21.1963   -9.2039    0.0000 C   0  0  0  0  0  0  0  0  0  0  0  0
  -22.6937   -9.2924    0.0000 C   0  0  0  0  0  0  0  0  0  0  0  0
  -23.5190   -8.0399    0.0000 C   0  0  0  0  0  0  0  0  0  0  0  0
  -25.0164   -8.1283    0.0000 C   0  0  0  0  0  0  0  0  0  0  0  0
  -25.8417   -6.8758    0.0000 N   0  0  0  0  0  0  0  0  0  0  0  0
  -25.6885   -9.4693    0.0000 O   0  0  0  0  0  0  0  0  0  0  0  0
  -21.3692  -10.6939    0.0000 C   0  0  0  0  0  0  0  0  0  0  0  0
  -20.2833  -11.7287    0.0000 O   0  0  0  0  0  0  0  0  0  0  0  0
  -22.7460  -11.2892    0.0000 N   0  0  0  0  0  0  0  0  0  0  0  0
  -22.9189  -12.7792    0.0000 C   0  0  0  0  0  0  0  0  0  0  0  0
  -22.5718  -14.2385    0.0000 C   0  0  0  0  0  0  0  0  0  0  0  0
  -23.6619  -15.2688    0.0000 C   0  0  0  0  0  0  0  0  0  0  0  0
  -23.3148  -16.7280    0.0000 N   0  0  0  0  0  0  0  0  0  0  0  0
  -25.1409  -15.0182    0.0000 O   0  0  0  0  0  0  0  0  0  0  0  0
  -24.2957  -13.3745    0.0000 C   0  0  0  0  0  0  0  0  0  0  0  0
  -24.6490  -14.8323    0.0000 O   0  0  0  0  0  0  0  0  0  0  0  0
  -25.4997  -12.4797    0.0000 O   0  0  0  0  0  0  0  0  0  0  0  0
   38.5529    0.7356    0.0000 H   0  0  0  0  0  0  0  0  0  0  0  0
   38.7869   -3.7509    0.0000 H   0  0  0  0  0  0  0  0  0  0  0  0
   41.4020   -5.2211    0.0000 H   0  0  0  0  0  0  0  0  0  0  0  0
   40.9710    0.7298    0.0000 H   0  0  0  0  0  0  0  0  0  0  0  0
   47.9009    2.5440    0.0000 H   0  0  0  0  0  0  0  0  0  0  0  0
   49.0392   -2.5259    0.0000 H   0  0  0  0  0  0  0  0  0  0  0  0
   46.1120   -3.1831    0.0000 H   0  0  0  0  0  0  0  0  0  0  0  0
   50.9499   -0.7656    0.0000 H   0  0  0  0  0  0  0  0  0  0  0  0
   41.1522   -1.6340    0.0000 H   0  0  0  0  0  0  0  0  0  0  0  0
   39.0903    0.7533    0.0000 H   0  0  0  0  0  0  0  0  0  0  0  0
   42.9410    4.0932    0.0000 H   0  0  0  0  0  0  0  0  0  0  0  0
   40.4611    4.8678    0.0000 H   0  0  0  0  0  0  0  0  0  0  0  0
   36.1377    0.7192    0.0000 H   0  0  0  0  0  0  0  0  0  0  0  0
   35.8416   -2.6835    0.0000 H   0  0  0  0  0  0  0  0  0  0  0  0
   33.9134   -2.7055    0.0000 H   0  0  0  0  0  0  0  0  0  0  0  0
   34.5079    0.3496    0.0000 H   0  0  0  0  0  0  0  0  0  0  0  0
   32.7256    0.4382    0.0000 H   0  0  0  0  0  0  0  0  0  0  0  0
   31.7615    0.4272    0.0000 H   0  0  0  0  0  0  0  0  0  0  0  0
   29.9817    0.2979    0.0000 H   0  0  0  0  0  0  0  0  0  0  0  0
   30.6458   -2.7428    0.0000 H   0  0  0  0  0  0  0  0  0  0  0  0
   28.8661   -2.8721    0.0000 H   0  0  0  0  0  0  0  0  0  0  0  0
   27.9019   -2.8831    0.0000 H   0  0  0  0  0  0  0  0  0  0  0  0
   26.1197   -2.7945    0.0000 H   0  0  0  0  0  0  0  0  0  0  0  0
   26.7142    0.2606    0.0000 H   0  0  0  0  0  0  0  0  0  0  0  0
   24.9319    0.3493    0.0000 H   0  0  0  0  0  0  0  0  0  0  0  0
   23.9678    0.3382    0.0000 H   0  0  0  0  0  0  0  0  0  0  0  0
   22.1880    0.2090    0.0000 H   0  0  0  0  0  0  0  0  0  0  0  0
   22.8521   -2.8318    0.0000 H   0  0  0  0  0  0  0  0  0  0  0  0
   21.0723   -2.9611    0.0000 H   0  0  0  0  0  0  0  0  0  0  0  0
   20.1082   -2.9721    0.0000 H   0  0  0  0  0  0  0  0  0  0  0  0
   18.3259   -2.8835    0.0000 H   0  0  0  0  0  0  0  0  0  0  0  0
   18.9204    0.1717    0.0000 H   0  0  0  0  0  0  0  0  0  0  0  0
   17.1382    0.2603    0.0000 H   0  0  0  0  0  0  0  0  0  0  0  0
   16.1740    0.2493    0.0000 H   0  0  0  0  0  0  0  0  0  0  0  0
   14.3943    0.1200    0.0000 H   0  0  0  0  0  0  0  0  0  0  0  0
   15.0584   -2.9208    0.0000 H   0  0  0  0  0  0  0  0  0  0  0  0
   13.2786   -3.0501    0.0000 H   0  0  0  0  0  0  0  0  0  0  0  0
   12.3145   -3.0611    0.0000 H   0  0  0  0  0  0  0  0  0  0  0  0
   10.5322   -2.9724    0.0000 H   0  0  0  0  0  0  0  0  0  0  0  0
   11.1267    0.0827    0.0000 H   0  0  0  0  0  0  0  0  0  0  0  0
    9.1985    0.0607    0.0000 H   0  0  0  0  0  0  0  0  0  0  0  0
    7.5607    0.3929    0.0000 H   0  0  0  0  0  0  0  0  0  0  0  0
    5.7583   -0.4682    0.0000 H   0  0  0  0  0  0  0  0  0  0  0  0
    6.0771   -3.9261    0.0000 H   0  0  0  0  0  0  0  0  0  0  0  0
    9.8475   -3.7428    0.0000 H   0  0  0  0  0  0  0  0  0  0  0  0
   10.0292   -1.9676    0.0000 H   0  0  0  0  0  0  0  0  0  0  0  0
    8.6097   -1.2424    0.0000 H   0  0  0  0  0  0  0  0  0  0  0  0
    7.9936   -5.9000    0.0000 H   0  0  0  0  0  0  0  0  0  0  0  0
    6.3644   -4.8683    0.0000 H   0  0  0  0  0  0  0  0  0  0  0  0
    9.8029   -6.0605    0.0000 H   0  0  0  0  0  0  0  0  0  0  0  0
   10.7480   -4.3796    0.0000 H   0  0  0  0  0  0  0  0  0  0  0  0
    9.7955   -3.2506    0.0000 H   0  0  0  0  0  0  0  0  0  0  0  0
    4.3329    0.4042    0.0000 H   0  0  0  0  0  0  0  0  0  0  0  0
    2.3448    0.2115    0.0000 H   0  0  0  0  0  0  0  0  0  0  0  0
    2.9081   -4.1919    0.0000 H   0  0  0  0  0  0  0  0  0  0  0  0
    1.4168   -2.9693    0.0000 H   0  0  0  0  0  0  0  0  0  0  0  0
    5.8452   -2.6583    0.0000 H   0  0  0  0  0  0  0  0  0  0  0  0
    4.7174   -1.4761    0.0000 H   0  0  0  0  0  0  0  0  0  0  0  0
    6.7763   -6.0556    0.0000 H   0  0  0  0  0  0  0  0  0  0  0  0
    7.6655   -3.7227    0.0000 H   0  0  0  0  0  0  0  0  0  0  0  0
    1.3037    1.5188    0.0000 H   0  0  0  0  0  0  0  0  0  0  0  0
   -0.6305    2.0177    0.0000 H   0  0  0  0  0  0  0  0  0  0  0  0
   -1.6072   -2.3128    0.0000 H   0  0  0  0  0  0  0  0  0  0  0  0
   -2.5903   -0.6540    0.0000 H   0  0  0  0  0  0  0  0  0  0  0  0
   -1.0780    3.4392    0.0000 H   0  0  0  0  0  0  0  0  0  0  0  0
   -2.3576    2.3190    0.0000 H   0  0  0  0  0  0  0  0  0  0  0  0
   -2.8195    0.9729    0.0000 H   0  0  0  0  0  0  0  0  0  0  0  0
   -2.7143    0.3959    0.0000 H   0  0  0  0  0  0  0  0  0  0  0  0
   -3.2570   -0.5500    0.0000 H   0  0  0  0  0  0  0  0  0  0  0  0
   -3.3274   -0.7023    0.0000 H   0  0  0  0  0  0  0  0  0  0  0  0
   -4.1244   -2.0686    0.0000 H   0  0  0  0  0  0  0  0  0  0  0  0
   -4.5731   -2.9486    0.0000 H   0  0  0  0  0  0  0  0  0  0  0  0
   -1.0995    3.9365    0.0000 H   0  0  0  0  0  0  0  0  0  0  0  0
   -1.5028    5.5198    0.0000 H   0  0  0  0  0  0  0  0  0  0  0  0
   -3.2767    5.7128    0.0000 H   0  0  0  0  0  0  0  0  0  0  0  0
   -3.0184    6.9236    0.0000 H   0  0  0  0  0  0  0  0  0  0  0  0
   -3.6979    7.6855    0.0000 H   0  0  0  0  0  0  0  0  0  0  0  0
   -4.5312   10.6591    0.0000 H   0  0  0  0  0  0  0  0  0  0  0  0
   -5.9459    9.8418    0.0000 H   0  0  0  0  0  0  0  0  0  0  0  0
   -2.8337    7.8721    0.0000 H   0  0  0  0  0  0  0  0  0  0  0  0
   -1.0795   11.0887    0.0000 H   0  0  0  0  0  0  0  0  0  0  0  0
   -2.4567   12.2233    0.0000 H   0  0  0  0  0  0  0  0  0  0  0  0
   -3.9445   11.2380    0.0000 H   0  0  0  0  0  0  0  0  0  0  0  0
   -0.5100    9.9719    0.0000 H   0  0  0  0  0  0  0  0  0  0  0  0
   -0.4005    8.1909    0.0000 H   0  0  0  0  0  0  0  0  0  0  0  0
   -2.2445    7.6265    0.0000 H   0  0  0  0  0  0  0  0  0  0  0  0
   -6.5305   11.1089    0.0000 H   0  0  0  0  0  0  0  0  0  0  0  0
   -7.4654   11.4279    0.0000 H   0  0  0  0  0  0  0  0  0  0  0  0
   -7.7778   12.9814    0.0000 H   0  0  0  0  0  0  0  0  0  0  0  0
   -9.5110   13.4057    0.0000 H   0  0  0  0  0  0  0  0  0  0  0  0
  -10.4236   11.8722    0.0000 H   0  0  0  0  0  0  0  0  0  0  0  0
  -11.4177   12.6102    0.0000 H   0  0  0  0  0  0  0  0  0  0  0  0
  -12.5594   12.3851    0.0000 H   0  0  0  0  0  0  0  0  0  0  0  0
  -15.3496   12.9429    0.0000 H   0  0  0  0  0  0  0  0  0  0  0  0
  -15.2882   11.1595    0.0000 H   0  0  0  0  0  0  0  0  0  0  0  0
  -11.0573   12.8722    0.0000 H   0  0  0  0  0  0  0  0  0  0  0  0
  -10.2811   15.6012    0.0000 H   0  0  0  0  0  0  0  0  0  0  0  0
  -12.3068   17.8141    0.0000 H   0  0  0  0  0  0  0  0  0  0  0  0
  -15.2360   17.1662    0.0000 H   0  0  0  0  0  0  0  0  0  0  0  0
  -16.1395   14.3054    0.0000 H   0  0  0  0  0  0  0  0  0  0  0  0
  -16.5235   11.2428    0.0000 H   0  0  0  0  0  0  0  0  0  0  0  0
  -17.3622   10.4362    0.0000 H   0  0  0  0  0  0  0  0  0  0  0  0
  -20.0111    9.3970    0.0000 H   0  0  0  0  0  0  0  0  0  0  0  0
  -18.9953    7.9299    0.0000 H   0  0  0  0  0  0  0  0  0  0  0  0
  -16.3620   11.6582    0.0000 H   0  0  0  0  0  0  0  0  0  0  0  0
  -17.1844   14.3736    0.0000 H   0  0  0  0  0  0  0  0  0  0  0  0
  -20.0849   15.1400    0.0000 H   0  0  0  0  0  0  0  0  0  0  0  0
  -22.1988   13.0113    0.0000 H   0  0  0  0  0  0  0  0  0  0  0  0
  -21.4123   10.1162    0.0000 H   0  0  0  0  0  0  0  0  0  0  0  0
  -20.1663    7.1709    0.0000 H   0  0  0  0  0  0  0  0  0  0  0  0
  -20.3490    6.2001    0.0000 H   0  0  0  0  0  0  0  0  0  0  0  0
  -22.0155    3.8938    0.0000 H   0  0  0  0  0  0  0  0  0  0  0  0
  -20.3678    3.2088    0.0000 H   0  0  0  0  0  0  0  0  0  0  0  0
  -23.2694    5.2081    0.0000 H   0  0  0  0  0  0  0  0  0  0  0  0
  -20.9568    2.1198    0.0000 H   0  0  0  0  0  0  0  0  0  0  0  0
  -20.5195    1.1974    0.0000 H   0  0  0  0  0  0  0  0  0  0  0  0
  -20.5577   -1.8905    0.0000 H   0  0  0  0  0  0  0  0  0  0  0  0
  -18.9700   -1.5049    0.0000 H   0  0  0  0  0  0  0  0  0  0  0  0
  -22.8484    0.5035    0.0000 H   0  0  0  0  0  0  0  0  0  0  0  0
  -21.4012    1.2619    0.0000 H   0  0  0  0  0  0  0  0  0  0  0  0
  -22.9888   -2.8069    0.0000 H   0  0  0  0  0  0  0  0  0  0  0  0
  -21.2837   -2.2806    0.0000 H   0  0  0  0  0  0  0  0  0  0  0  0
  -24.5011    0.2556    0.0000 H   0  0  0  0  0  0  0  0  0  0  0  0
  -27.3541   -3.2244    0.0000 H   0  0  0  0  0  0  0  0  0  0  0  0
  -26.9322   -0.6609    0.0000 H   0  0  0  0  0  0  0  0  0  0  0  0
  -25.1964   -4.9789    0.0000 H   0  0  0  0  0  0  0  0  0  0  0  0
  -22.9138   -3.9552    0.0000 H   0  0  0  0  0  0  0  0  0  0  0  0
  -18.8767   -2.7394    0.0000 H   0  0  0  0  0  0  0  0  0  0  0  0
  -15.1767   -5.2605    0.0000 H   0  0  0  0  0  0  0  0  0  0  0  0
  -16.3559   -4.8190    0.0000 H   0  0  0  0  0  0  0  0  0  0  0  0
  -13.6849   -5.8130    0.0000 H   0  0  0  0  0  0  0  0  0  0  0  0
  -14.7470   -5.5655    0.0000 H   0  0  0  0  0  0  0  0  0  0  0  0
  -11.9362   -6.0361    0.0000 H   0  0  0  0  0  0  0  0  0  0  0  0
  -13.1891   -5.9109    0.0000 H   0  0  0  0  0  0  0  0  0  0  0  0
  -10.1769   -5.9243    0.0000 H   0  0  0  0  0  0  0  0  0  0  0  0
  -11.4308   -6.0384    0.0000 H   0  0  0  0  0  0  0  0  0  0  0  0
   -8.4705   -5.4815    0.0000 H   0  0  0  0  0  0  0  0  0  0  0  0
   -9.6802   -5.8308    0.0000 H   0  0  0  0  0  0  0  0  0  0  0  0
   -6.7745   -4.5731    0.0000 H   0  0  0  0  0  0  0  0  0  0  0  0
   -8.0005   -5.2957    0.0000 H   0  0  0  0  0  0  0  0  0  0  0  0
   -5.8706   -4.1747    0.0000 H   0  0  0  0  0  0  0  0  0  0  0  0
  -18.5752   -4.8224    0.0000 H   0  0  0  0  0  0  0  0  0  0  0  0
  -19.4589   -3.4482    0.0000 H   0  0  0  0  0  0  0  0  0  0  0  0
  -18.5630   -2.0819    0.0000 H   0  0  0  0  0  0  0  0  0  0  0  0
  -19.4009   -4.2921    0.0000 H   0  0  0  0  0  0  0  0  0  0  0  0
  -16.7724   -6.4349    0.0000 H   0  0  0  0  0  0  0  0  0  0  0  0
  -16.9508   -9.1252    0.0000 H   0  0  0  0  0  0  0  0  0  0  0  0
  -16.5458   -7.3874    0.0000 H   0  0  0  0  0  0  0  0  0  0  0  0
  -20.3296   -8.2946    0.0000 H   0  0  0  0  0  0  0  0  0  0  0  0
  -19.4742  -11.7357    0.0000 H   0  0  0  0  0  0  0  0  0  0  0  0
  -17.8403  -11.7247    0.0000 H   0  0  0  0  0  0  0  0  0  0  0  0
  -17.2265  -10.0492    0.0000 H   0  0  0  0  0  0  0  0  0  0  0  0
  -21.7743   -9.0314    0.0000 H   0  0  0  0  0  0  0  0  0  0  0  0
  -21.0381  -10.9608    0.0000 H   0  0  0  0  0  0  0  0  0  0  0  0
  -19.7231  -10.9520    0.0000 H   0  0  0  0  0  0  0  0  0  0  0  0
  -18.8678   -9.7681    0.0000 H   0  0  0  0  0  0  0  0  0  0  0  0
  -21.3630   -7.7132    0.0000 H   0  0  0  0  0  0  0  0  0  0  0  0
  -24.1328   -9.7154    0.0000 H   0  0  0  0  0  0  0  0  0  0  0  0
  -22.8927  -10.7791    0.0000 H   0  0  0  0  0  0  0  0  0  0  0  0
  -23.8661   -6.5806    0.0000 H   0  0  0  0  0  0  0  0  0  0  0  0
  -22.2250   -7.2812    0.0000 H   0  0  0  0  0  0  0  0  0  0  0  0
  -27.3391   -6.9643    0.0000 H   0  0  0  0  0  0  0  0  0  0  0  0
  -25.0112   -5.6267    0.0000 H   0  0  0  0  0  0  0  0  0  0  0  0
  -24.0500  -10.5479    0.0000 H   0  0  0  0  0  0  0  0  0  0  0  0
  -21.4215  -12.6907    0.0000 H   0  0  0  0  0  0  0  0  0  0  0  0
  -21.7464  -15.4910    0.0000 H   0  0  0  0  0  0  0  0  0  0  0  0
  -21.1949  -13.6432    0.0000 H   0  0  0  0  0  0  0  0  0  0  0  0
  -24.4050  -17.7583    0.0000 H   0  0  0  0  0  0  0  0  0  0  0  0
  -21.8775  -17.1570    0.0000 H   0  0  0  0  0  0  0  0  0  0  0  0
  1  2  1  0
  2  3  1  0
  3  4  2  0
  4  5  1  0
  5  6  2  0
  6  7  1  0
  7  8  2  0
  7  9  1  0
  9 10  1  0
 10 11  1  0
 11 12  2  0
  9 13  1  0
 13 14  1  0
 14 15  2  0
 15 16  1  0
 16 17  2  0
 17 18  1  0
 16 19  1  0
 14 20  1  0
 20 21  1  0
 21 22  2  0
 22 23  1  0
 23 24  2  0
 24 25  1  0
 25 26  2  0
 25 27  1  0
  1 28  2  0
  1 29  1  0
 29 30  1  0
 30 31  1  0
 31 32  1  0
 32 33  1  0
 33 34  1  0
 34 35  1  0
 35 36  1  0
 36 37  1  0
 37 38  1  0
 38 39  1  0
 39 40  1  0
 40 41  1  0
 41 42  1  0
 42 43  1  0
 43 44  1  0
 44 45  1  0
 45 46  1  0
 46 47  1  0
 47 48  1  0
 48 49  1  0
 49 50  1  0
 50 51  2  0
 50 52  1  0
 52 53  1  0
 53 54  1  0
 54 55  1  0
 54 56  1  0
 56 57  1  0
 53 58  1  0
 58 59  2  0
 58 60  1  0
 60 61  1  0
 61 62  1  0
 62 63  1  0
 63 64  1  0
 64 65  1  0
 64 66  2  0
 61 67  1  0
 67 68  2  0
 67 69  1  0
 69 70  1  0
 70 71  1  0
 71 72  1  0
 72 73  2  0
 72 74  1  0
 70 75  1  0
 75 76  2  0
 75 77  1  0
 78 77  1  1
 78 79  1  0
 79 80  1  0
 80 81  1  0
 81 82  1  0
 78 83  1  0
 78 84  1  0
 84 85  2  0
 84 86  1  0
 86 87  1  0
 87 88  1  0
 88 89  1  0
 89 90  1  0
 89 91  1  0
 87 92  1  0
 92 93  2  0
 92 94  1  0
 94 95  1  0
 95 96  1  0
 95 97  1  0
 97 98  2  0
 97 99  1  0
 99100  1  0
100101  1  0
101102  1  0
102103  2  0
103104  1  0
104105  2  0
105106  1  0
106107  2  0
100108  1  0
108109  2  0
108110  1  0
110111  1  0
111112  1  0
112113  1  0
113114  2  0
114115  1  0
115116  2  0
116117  1  0
117118  2  0
111119  1  0
119120  2  0
119121  1  0
121122  1  0
122123  1  0
123124  1  0
122125  1  0
125126  2  0
125127  1  0
127128  1  0
128129  1  0
129130  1  0
130131  1  0
131132  1  0
132133  1  0
133134  2  3
133135  1  0
128136  1  0
136137  2  0
136138  1  0
138139  1  0
139140  1  0
140141  1  0
141142  1  0
142143  1  0
143144  1  0
144145  1  0
145146  1  0
139147  1  0
139148  1  6
148149  2  0
148150  1  0
150151  1  0
151152  1  0
152153  1  0
153154  1  0
153155  1  0
151156  1  0
156157  2  0
156158  1  0
158159  1  0
159160  1  0
160161  1  0
161162  1  0
162163  1  0
162164  2  0
159165  1  0
165166  2  0
165167  1  0
167168  1  0
168169  1  0
169170  1  0
170171  1  0
170172  2  0
168173  1  0
173174  2  0
173175  1  0
  8  3  1  0
107102  1  0
118113  1  0
 11  6  1  0
 18 13  2  0
 82146  2  0
 22  9  1  0
 26 21  1  0
  2176  1  0
  4177  1  0
  5178  1  0
  8179  1  0
 15180  1  0
 17181  1  0
 18182  1  0
 19183  1  0
 23184  1  0
 24185  1  0
 26186  1  0
 27187  1  0
 29188  1  0
 30189  1  0
 30190  1  0
 31191  1  0
 31192  1  0
 33193  1  0
 33194  1  0
 34195  1  0
 34196  1  0
 36197  1  0
 36198  1  0
 37199  1  0
 37200  1  0
 39201  1  0
 39202  1  0
 40203  1  0
 40204  1  0
 42205  1  0
 42206  1  0
 43207  1  0
 43208  1  0
 45209  1  0
 45210  1  0
 46211  1  0
 46212  1  0
 48213  1  0
 48214  1  0
 49215  1  0
 49216  1  0
 52217  1  0
 53218  1  1
 54219  1  6
 55220  1  0
 55221  1  0
 55222  1  0
 56223  1  0
 56224  1  0
 57225  1  0
 57226  1  0
 57227  1  0
 60228  1  0
 61229  1  1
 62230  1  0
 62231  1  0
 63232  1  0
 63233  1  0
 65234  1  0
 65235  1  0
 69236  1  0
 70237  1  1
 71238  1  0
 71239  1  0
 77240  1  0
 79241  1  0
 79242  1  0
 80243  1  0
 80244  1  0
 81245  1  0
 81246  1  0
 82247  1  0
 83248  1  0
 83249  1  0
 83250  1  0
 86251  1  0
 87252  1  6
 88253  1  0
 88254  1  0
 89255  1  0
 90256  1  0
 90257  1  0
 90258  1  0
 91259  1  0
 91260  1  0
 91261  1  0
 94262  1  0
 95263  1  6
 96264  1  0
 96265  1  0
 96266  1  0
 99267  1  0
100268  1  6
101269  1  0
101270  1  0
103271  1  0
104272  1  0
105273  1  0
106274  1  0
107275  1  0
110276  1  0
111277  1  6
112278  1  0
112279  1  0
114280  1  0
115281  1  0
116282  1  0
117283  1  0
118284  1  0
121285  1  0
122286  1  6
123287  1  0
123288  1  0
124289  1  0
127290  1  0
128291  1  6
129292  1  0
129293  1  0
130294  1  0
130295  1  0
131296  1  0
131297  1  0
132298  1  0
134299  1  0
134300  1  0
135301  1  0
135302  1  0
138303  1  0
140304  1  0
140305  1  0
141306  1  0
141307  1  0
142308  1  0
142309  1  0
143310  1  0
143311  1  0
144312  1  0
144313  1  0
145314  1  0
145315  1  0
146316  1  0
147317  1  0
147318  1  0
147319  1  0
150320  1  0
151321  1  1
152322  1  0
152323  1  0
153324  1  0
154325  1  0
154326  1  0
154327  1  0
155328  1  0
155329  1  0
155330  1  0
158331  1  0
159332  1  6
160333  1  0
160334  1  0
161335  1  0
161336  1  0
163337  1  0
163338  1  0
167339  1  0
168340  1  1
169341  1  0
169342  1  0
171343  1  0
171344  1  0
M  CHG  3  74  -1 134   1 175  -1
M  END
