
     RDKit          2D

246247  0  0  0  0  0  0  0  0999 V2000
   17.6404   -9.4246    0.0000 C   0  0  0  0  0  0  0  0  0  0  0  0
   16.2801   -8.7926    0.0000 C   0  0  0  0  0  0  0  0  0  0  0  0
   16.1473   -7.2985    0.0000 O   0  0  0  0  0  0  0  0  0  0  0  0
   15.0525   -9.6546    0.0000 N   0  0  0  0  0  0  0  0  0  0  0  0
   13.6922   -9.0226    0.0000 C   0  0  0  0  0  0  0  0  0  0  0  0
   13.3059  -10.4720    0.0000 C   0  0  0  0  0  0  0  0  0  0  0  0
   12.6301   -7.9633    0.0000 C   0  0  0  0  0  0  0  0  0  0  0  0
   11.3791   -8.4708    0.0000 O   0  0  0  0  0  0  0  0  0  0  0  0
   13.0163   -6.5139    0.0000 N   0  0  0  0  0  0  0  0  0  0  0  0
   11.9542   -5.4547    0.0000 C   0  0  0  0  0  0  0  0  0  0  0  0
   11.0955   -6.6846    0.0000 C   0  0  0  0  0  0  0  0  0  0  0  0
    9.6010   -6.5560    0.0000 C   0  0  0  0  0  0  0  0  0  0  0  0
    8.8267   -5.2713    0.0000 C   0  0  0  0  0  0  0  0  0  0  0  0
    7.3656   -5.6107    0.0000 N   0  0  0  0  0  0  0  0  0  0  0  0
    7.2369   -7.1052    0.0000 C   0  0  0  0  0  0  0  0  0  0  0  0
    8.6185   -7.6894    0.0000 N   0  0  0  0  0  0  0  0  0  0  0  0
   11.3184   -4.0961    0.0000 C   0  0  0  0  0  0  0  0  0  0  0  0
   10.1296   -3.8451    0.0000 O   0  0  0  0  0  0  0  0  0  0  0  0
   12.1771   -2.8662    0.0000 N   0  0  0  0  0  0  0  0  0  0  0  0
   11.5413   -1.5076    0.0000 C   0  0  0  0  0  0  0  0  0  0  0  0
   12.9896   -1.1174    0.0000 C   0  0  0  0  0  0  0  0  0  0  0  0
   14.0518   -2.1766    0.0000 C   0  0  0  0  0  0  0  0  0  0  0  0
   15.5001   -1.7864    0.0000 C   0  0  0  0  0  0  0  0  0  0  0  0
   14.6875   -3.5352    0.0000 C   0  0  0  0  0  0  0  0  0  0  0  0
   10.4792   -0.4484    0.0000 C   0  0  0  0  0  0  0  0  0  0  0  0
   11.0392    0.9431    0.0000 O   0  0  0  0  0  0  0  0  0  0  0  0
    9.0308   -0.8386    0.0000 N   0  0  0  0  0  0  0  0  0  0  0  0
    7.9687    0.2206    0.0000 C   0  0  0  0  0  0  0  0  0  0  0  0
    7.4913   -1.2015    0.0000 C   0  0  0  0  0  0  0  0  0  0  0  0
    6.7534   -2.5074    0.0000 C   0  0  0  0  0  0  0  0  0  0  0  0
    5.7817   -3.6501    0.0000 C   0  0  0  0  0  0  0  0  0  0  0  0
    4.6113   -4.5883    0.0000 C   0  0  0  0  0  0  0  0  0  0  0  0
    3.2845   -5.2880    0.0000 C   0  0  0  0  0  0  0  0  0  0  0  0
    1.8493   -5.7240    0.0000 C   0  0  0  0  0  0  0  0  0  0  0  0
    0.3575   -5.8805    0.0000 C   0  0  0  0  0  0  0  0  0  0  0  0
    9.3894    0.7018    0.0000 C   0  0  0  0  0  0  0  0  0  0  0  0
    8.1683    1.7072    0.0000 C   0  0  0  0  0  0  0  0  0  0  0  0
    9.6631    1.8329    0.0000 O   0  0  0  0  0  0  0  0  0  0  0  0
    8.0830    3.2048    0.0000 N   0  0  0  0  0  0  0  0  0  0  0  0
    7.7158    4.6591    0.0000 C   0  0  0  0  0  0  0  0  0  0  0  0
    8.6508    5.8321    0.0000 C   0  0  0  0  0  0  0  0  0  0  0  0
   10.1341    5.6089    0.0000 C   0  0  0  0  0  0  0  0  0  0  0  0
   11.0691    6.7819    0.0000 C   0  0  0  0  0  0  0  0  0  0  0  0
   11.4516    4.8918    0.0000 C   0  0  0  0  0  0  0  0  0  0  0  0
    7.0801    6.0177    0.0000 C   0  0  0  0  0  0  0  0  0  0  0  0
    8.2695    6.9316    0.0000 O   0  0  0  0  0  0  0  0  0  0  0  0
    6.1986    7.2314    0.0000 N   0  0  0  0  0  0  0  0  0  0  0  0
    5.1034    8.2564    0.0000 C   0  0  0  0  0  0  0  0  0  0  0  0
    5.2558    9.7487    0.0000 C   0  0  0  0  0  0  0  0  0  0  0  0
    6.6243   10.3628    0.0000 S   0  0  0  0  0  0  0  0  0  0  0  0
    3.8341    9.0556    0.0000 C   0  0  0  0  0  0  0  0  0  0  0  0
    4.3407   10.4675    0.0000 O   0  0  0  0  0  0  0  0  0  0  0  0
    2.4364    9.6001    0.0000 N   0  0  0  0  0  0  0  0  0  0  0  0
    0.9609    9.8703    0.0000 C   0  0  0  0  0  0  0  0  0  0  0  0
    0.2823   11.2080    0.0000 C   0  0  0  0  0  0  0  0  0  0  0  0
    1.1016   12.4645    0.0000 C   0  0  0  0  0  0  0  0  0  0  0  0
    0.4230   13.8023    0.0000 C   0  0  0  0  0  0  0  0  0  0  0  0
    2.3011   13.3651    0.0000 C   0  0  0  0  0  0  0  0  0  0  0  0
   -0.5390    9.8563    0.0000 C   0  0  0  0  0  0  0  0  0  0  0  0
   -0.8762   11.3179    0.0000 O   0  0  0  0  0  0  0  0  0  0  0  0
   -2.0092    9.5587    0.0000 N   0  0  0  0  0  0  0  0  0  0  0  0
   -3.3965    8.9883    0.0000 C   0  0  0  0  0  0  0  0  0  0  0  0
   -4.6906    9.7468    0.0000 C   0  0  0  0  0  0  0  0  0  0  0  0
   -4.6808   11.2468    0.0000 C   0  0  0  0  0  0  0  0  0  0  0  0
   -5.9748   12.0053    0.0000 C   0  0  0  0  0  0  0  0  0  0  0  0
   -5.9650   13.5053    0.0000 O   0  0  0  0  0  0  0  0  0  0  0  0
   -7.2788   11.2638    0.0000 O   0  0  0  0  0  0  0  0  0  0  0  0
   -4.6508    8.1656    0.0000 C   0  0  0  0  0  0  0  0  0  0  0  0
   -5.7246    9.2130    0.0000 O   0  0  0  0  0  0  0  0  0  0  0  0
   -5.7267    7.1205    0.0000 N   0  0  0  0  0  0  0  0  0  0  0  0
   -6.5854    5.8906    0.0000 C   0  0  0  0  0  0  0  0  0  0  0  0
   -8.0841    5.8290    0.0000 C   0  0  0  0  0  0  0  0  0  0  0  0
   -8.8868    7.0962    0.0000 C   0  0  0  0  0  0  0  0  0  0  0  0
  -10.3855    7.0347    0.0000 C   0  0  0  0  0  0  0  0  0  0  0  0
  -11.1882    8.3018    0.0000 C   0  0  0  0  0  0  0  0  0  0  0  0
  -12.6869    8.2403    0.0000 N   0  0  0  0  0  0  0  0  0  0  0  0
   -7.1958    4.5204    0.0000 C   0  0  0  0  0  0  0  0  0  0  0  0
   -8.6654    4.8209    0.0000 O   0  0  0  0  0  0  0  0  0  0  0  0
   -7.5358    3.0594    0.0000 N   0  0  0  0  0  0  0  0  0  0  0  0
   -7.5933    1.5605    0.0000 C   0  0  0  0  0  0  0  0  0  0  0  0
   -8.8208    0.6985    0.0000 C   0  0  0  0  0  0  0  0  0  0  0  0
  -10.1811    1.3305    0.0000 C   0  0  0  0  0  0  0  0  0  0  0  0
  -11.4087    0.4685    0.0000 C   0  0  0  0  0  0  0  0  0  0  0  0
  -11.2433    2.3897    0.0000 C   0  0  0  0  0  0  0  0  0  0  0  0
   -7.3660    0.0778    0.0000 C   0  0  0  0  0  0  0  0  0  0  0  0
   -8.7647   -0.4639    0.0000 O   0  0  0  0  0  0  0  0  0  0  0  0
   -6.8622   -1.3350    0.0000 N   0  0  0  0  0  0  0  0  0  0  0  0
   -6.1002   -2.6270    0.0000 C   0  0  0  0  0  0  0  0  0  0  0  0
   -5.1074   -3.7515    0.0000 C   0  0  0  0  0  0  0  0  0  0  0  0
   -3.9197   -4.6677    0.0000 C   0  0  0  0  0  0  0  0  0  0  0  0
   -2.5801   -5.3426    0.0000 C   0  0  0  0  0  0  0  0  0  0  0  0
   -1.1370   -5.7518    0.0000 C   0  0  0  0  0  0  0  0  0  0  0  0
   -7.5962   -2.7361    0.0000 C   0  0  0  0  0  0  0  0  0  0  0  0
   -6.6668   -4.0159    0.0000 C   0  0  0  0  0  0  0  0  0  0  0  0
   -6.0614   -5.3883    0.0000 O   0  0  0  0  0  0  0  0  0  0  0  0
   -8.1529   -4.2196    0.0000 N   0  0  0  0  0  0  0  0  0  0  0  0
   -8.7195   -5.6085    0.0000 C   0  0  0  0  0  0  0  0  0  0  0  0
  -10.2056   -5.8122    0.0000 C   0  0  0  0  0  0  0  0  0  0  0  0
  -11.1251   -4.6271    0.0000 O   0  0  0  0  0  0  0  0  0  0  0  0
  -10.7722   -7.2011    0.0000 N   0  0  0  0  0  0  0  0  0  0  0  0
  -12.2583   -7.4048    0.0000 C   0  0  0  0  0  0  0  0  0  0  0  0
  -13.7245   -7.0880    0.0000 C   0  0  0  0  0  0  0  0  0  0  0  0
  -14.1832   -5.6598    0.0000 C   0  0  0  0  0  0  0  0  0  0  0  0
  -15.6493   -5.3430    0.0000 C   0  0  0  0  0  0  0  0  0  0  0  0
  -14.1257   -4.1609    0.0000 C   0  0  0  0  0  0  0  0  0  0  0  0
  -12.8249   -8.7937    0.0000 C   0  0  0  0  0  0  0  0  0  0  0  0
  -11.9054   -9.9788    0.0000 O   0  0  0  0  0  0  0  0  0  0  0  0
  -14.3110   -8.9974    0.0000 N   0  0  0  0  0  0  0  0  0  0  0  0
  -14.8777  -10.3863    0.0000 C   0  0  0  0  0  0  0  0  0  0  0  0
  -14.9351  -11.8852    0.0000 C   0  0  0  0  0  0  0  0  0  0  0  0
  -16.2619  -12.5849    0.0000 C   0  0  0  0  0  0  0  0  0  0  0  0
  -16.3638  -10.5900    0.0000 C   0  0  0  0  0  0  0  0  0  0  0  0
  -17.0954  -11.8994    0.0000 O   0  0  0  0  0  0  0  0  0  0  0  0
  -17.2832   -9.4048    0.0000 O   0  0  0  0  0  0  0  0  0  0  0  0
   18.8679   -8.5626    0.0000 H   0  0  0  0  0  0  0  0  0  0  0  0
   18.7025  -10.4838    0.0000 H   0  0  0  0  0  0  0  0  0  0  0  0
   16.7817  -10.6545    0.0000 H   0  0  0  0  0  0  0  0  0  0  0  0
   15.3664  -11.1214    0.0000 H   0  0  0  0  0  0  0  0  0  0  0  0
   14.5509   -7.7926    0.0000 H   0  0  0  0  0  0  0  0  0  0  0  0
   14.2310  -11.6527    0.0000 H   0  0  0  0  0  0  0  0  0  0  0  0
   12.4473  -11.7019    0.0000 H   0  0  0  0  0  0  0  0  0  0  0  0
   11.9456   -9.8399    0.0000 H   0  0  0  0  0  0  0  0  0  0  0  0
   14.4647   -6.1237    0.0000 H   0  0  0  0  0  0  0  0  0  0  0  0
   13.0675   -4.4495    0.0000 H   0  0  0  0  0  0  0  0  0  0  0  0
   10.5915   -7.9370    0.0000 H   0  0  0  0  0  0  0  0  0  0  0  0
   11.9462   -7.3717    0.0000 H   0  0  0  0  0  0  0  0  0  0  0  0
    9.1600   -4.1029    0.0000 H   0  0  0  0  0  0  0  0  0  0  0  0
    6.0282   -4.9316    0.0000 H   0  0  0  0  0  0  0  0  0  0  0  0
    5.9523   -7.8795    0.0000 H   0  0  0  0  0  0  0  0  0  0  0  0
   12.9570   -3.0309    0.0000 H   0  0  0  0  0  0  0  0  0  0  0  0
   10.3137   -2.3697    0.0000 H   0  0  0  0  0  0  0  0  0  0  0  0
   14.1029   -0.1122    0.0000 H   0  0  0  0  0  0  0  0  0  0  0  0
   12.3538    0.2412    0.0000 H   0  0  0  0  0  0  0  0  0  0  0  0
   13.5575   -2.9116    0.0000 H   0  0  0  0  0  0  0  0  0  0  0  0
   16.6834   -2.7082    0.0000 H   0  0  0  0  0  0  0  0  0  0  0  0
   16.7277   -0.9244    0.0000 H   0  0  0  0  0  0  0  0  0  0  0  0
   15.0347   -0.3604    0.0000 H   0  0  0  0  0  0  0  0  0  0  0  0
   16.1552   -3.8451    0.0000 H   0  0  0  0  0  0  0  0  0  0  0  0
   14.8203   -5.0293    0.0000 H   0  0  0  0  0  0  0  0  0  0  0  0
   13.2024   -3.7460    0.0000 H   0  0  0  0  0  0  0  0  0  0  0  0
    9.0068   -2.3385    0.0000 H   0  0  0  0  0  0  0  0  0  0  0  0
    8.9825   -1.3634    0.0000 H   0  0  0  0  0  0  0  0  0  0  0  0
    8.3338   -2.4425    0.0000 H   0  0  0  0  0  0  0  0  0  0  0  0
    8.1871   -2.9486    0.0000 H   0  0  0  0  0  0  0  0  0  0  0  0
    7.5094   -3.8030    0.0000 H   0  0  0  0  0  0  0  0  0  0  0  0
    7.1820   -4.1880    0.0000 H   0  0  0  0  0  0  0  0  0  0  0  0
    6.1026   -5.1154    0.0000 H   0  0  0  0  0  0  0  0  0  0  0  0
    5.7783   -5.5307    0.0000 H   0  0  0  0  0  0  0  0  0  0  0  0
    4.8316   -6.0720    0.0000 H   0  0  0  0  0  0  0  0  0  0  0  0
    4.3846   -6.3078    0.0000 H   0  0  0  0  0  0  0  0  0  0  0  0
    3.2200   -6.7866    0.0000 H   0  0  0  0  0  0  0  0  0  0  0  0
    2.7364   -6.9335    0.0000 H   0  0  0  0  0  0  0  0  0  0  0  0
    1.3270   -7.1301    0.0000 H   0  0  0  0  0  0  0  0  0  0  0  0
    0.3714   -7.3804    0.0000 H   0  0  0  0  0  0  0  0  0  0  0  0
   10.7225    0.0143    0.0000 H   0  0  0  0  0  0  0  0  0  0  0  0
   10.5598    1.6400    0.0000 H   0  0  0  0  0  0  0  0  0  0  0  0
    9.0084    2.1527    0.0000 H   0  0  0  0  0  0  0  0  0  0  0  0
    9.5824    3.2496    0.0000 H   0  0  0  0  0  0  0  0  0  0  0  0
    9.1324    4.1660    0.0000 H   0  0  0  0  0  0  0  0  0  0  0  0
    9.1282    7.2541    0.0000 H   0  0  0  0  0  0  0  0  0  0  0  0
    7.5460    6.8467    0.0000 H   0  0  0  0  0  0  0  0  0  0  0  0
   10.0150    4.1136    0.0000 H   0  0  0  0  0  0  0  0  0  0  0  0
   12.5685    6.7411    0.0000 H   0  0  0  0  0  0  0  0  0  0  0  0
   11.5464    8.2039    0.0000 H   0  0  0  0  0  0  0  0  0  0  0  0
    9.8488    7.6542    0.0000 H   0  0  0  0  0  0  0  0  0  0  0  0
   12.8172    5.5125    0.0000 H   0  0  0  0  0  0  0  0  0  0  0  0
   12.4444    3.7674    0.0000 H   0  0  0  0  0  0  0  0  0  0  0  0
   10.5166    3.7189    0.0000 H   0  0  0  0  0  0  0  0  0  0  0  0
    7.3231    8.2242    0.0000 H   0  0  0  0  0  0  0  0  0  0  0  0
    6.5081    8.7825    0.0000 H   0  0  0  0  0  0  0  0  0  0  0  0
    5.0687   11.2369    0.0000 H   0  0  0  0  0  0  0  0  0  0  0  0
    3.7779   10.0048    0.0000 H   0  0  0  0  0  0  0  0  0  0  0  0
    6.7767   11.8551    0.0000 H   0  0  0  0  0  0  0  0  0  0  0  0
    3.0184   10.9826    0.0000 H   0  0  0  0  0  0  0  0  0  0  0  0
    1.9980   10.9540    0.0000 H   0  0  0  0  0  0  0  0  0  0  0  0
   -0.8128   12.2330    0.0000 H   0  0  0  0  0  0  0  0  0  0  0  0
   -1.0995   10.6245    0.0000 H   0  0  0  0  0  0  0  0  0  0  0  0
    2.4122   11.7350    0.0000 H   0  0  0  0  0  0  0  0  0  0  0  0
    1.0829   15.1493    0.0000 H   0  0  0  0  0  0  0  0  0  0  0  0
   -0.6722   14.8272    0.0000 H   0  0  0  0  0  0  0  0  0  0  0  0
   -0.8774   13.0546    0.0000 H   0  0  0  0  0  0  0  0  0  0  0  0
    2.3039   14.8651    0.0000 H   0  0  0  0  0  0  0  0  0  0  0  0
    3.7364   13.8011    0.0000 H   0  0  0  0  0  0  0  0  0  0  0  0
    2.9797   12.0274    0.0000 H   0  0  0  0  0  0  0  0  0  0  0  0
   -2.2670   11.0364    0.0000 H   0  0  0  0  0  0  0  0  0  0  0  0
   -3.1099   10.4607    0.0000 H   0  0  0  0  0  0  0  0  0  0  0  0
   -6.1221   10.1948    0.0000 H   0  0  0  0  0  0  0  0  0  0  0  0
   -5.5376    8.5088    0.0000 H   0  0  0  0  0  0  0  0  0  0  0  0
   -4.1585   12.6529    0.0000 H   0  0  0  0  0  0  0  0  0  0  0  0
   -3.1838   11.3417    0.0000 H   0  0  0  0  0  0  0  0  0  0  0  0
   -6.7425    8.2242    0.0000 H   0  0  0  0  0  0  0  0  0  0  0  0
   -7.1403    7.2841    0.0000 H   0  0  0  0  0  0  0  0  0  0  0  0
   -9.4714    5.2586    0.0000 H   0  0  0  0  0  0  0  0  0  0  0  0
   -8.1274    4.3296    0.0000 H   0  0  0  0  0  0  0  0  0  0  0  0
   -9.0266    8.5897    0.0000 H   0  0  0  0  0  0  0  0  0  0  0  0
   -7.6787    7.9854    0.0000 H   0  0  0  0  0  0  0  0  0  0  0  0
  -11.6929    6.2994    0.0000 H   0  0  0  0  0  0  0  0  0  0  0  0
  -10.2457    5.5412    0.0000 H   0  0  0  0  0  0  0  0  0  0  0  0
  -11.5090    9.7671    0.0000 H   0  0  0  0  0  0  0  0  0  0  0  0
   -9.8808    9.0371    0.0000 H   0  0  0  0  0  0  0  0  0  0  0  0
  -13.4896    9.5075    0.0000 H   0  0  0  0  0  0  0  0  0  0  0  0
  -14.0742    7.6699    0.0000 H   0  0  0  0  0  0  0  0  0  0  0  0
  -12.5471    6.7468    0.0000 H   0  0  0  0  0  0  0  0  0  0  0  0
   -8.9871    3.4388    0.0000 H   0  0  0  0  0  0  0  0  0  0  0  0
   -8.8135    2.4328    0.0000 H   0  0  0  0  0  0  0  0  0  0  0  0
   -9.6795   -0.5314    0.0000 H   0  0  0  0  0  0  0  0  0  0  0  0
   -8.0466   -0.5863    0.0000 H   0  0  0  0  0  0  0  0  0  0  0  0
   -9.6456    2.7317    0.0000 H   0  0  0  0  0  0  0  0  0  0  0  0
  -12.8359    0.9300    0.0000 H   0  0  0  0  0  0  0  0  0  0  0  0
  -12.2674   -0.7614    0.0000 H   0  0  0  0  0  0  0  0  0  0  0  0
  -10.4836   -0.7123    0.0000 H   0  0  0  0  0  0  0  0  0  0  0  0
  -12.7284    2.1790    0.0000 H   0  0  0  0  0  0  0  0  0  0  0  0
  -11.8790    3.7483    0.0000 H   0  0  0  0  0  0  0  0  0  0  0  0
  -10.0157    3.2518    0.0000 H   0  0  0  0  0  0  0  0  0  0  0  0
   -8.2882   -1.8005    0.0000 H   0  0  0  0  0  0  0  0  0  0  0  0
   -5.4009   -5.2225    0.0000 H   0  0  0  0  0  0  0  0  0  0  0  0
   -6.4183   -4.4805    0.0000 H   0  0  0  0  0  0  0  0  0  0  0  0
   -4.1123   -6.1553    0.0000 H   0  0  0  0  0  0  0  0  0  0  0  0
   -5.0689   -5.6317    0.0000 H   0  0  0  0  0  0  0  0  0  0  0  0
   -2.3059   -6.8173    0.0000 H   0  0  0  0  0  0  0  0  0  0  0  0
   -3.6610   -6.3827    0.0000 H   0  0  0  0  0  0  0  0  0  0  0  0
   -1.4072   -7.2273    0.0000 H   0  0  0  0  0  0  0  0  0  0  0  0
   -8.5570   -3.8880    0.0000 H   0  0  0  0  0  0  0  0  0  0  0  0
   -9.0393   -2.3269    0.0000 H   0  0  0  0  0  0  0  0  0  0  0  0
   -7.8094   -1.2513    0.0000 H   0  0  0  0  0  0  0  0  0  0  0  0
   -9.2100   -3.1554    0.0000 H   0  0  0  0  0  0  0  0  0  0  0  0
   -8.7769   -7.1074    0.0000 H   0  0  0  0  0  0  0  0  0  0  0  0
   -7.2533   -5.9253    0.0000 H   0  0  0  0  0  0  0  0  0  0  0  0
   -9.8527   -8.3862    0.0000 H   0  0  0  0  0  0  0  0  0  0  0  0
  -12.0186   -5.9241    0.0000 H   0  0  0  0  0  0  0  0  0  0  0  0
  -15.2106   -7.2917    0.0000 H   0  0  0  0  0  0  0  0  0  0  0  0
  -14.1429   -8.5284    0.0000 H   0  0  0  0  0  0  0  0  0  0  0  0
  -12.7330   -5.2765    0.0000 H   0  0  0  0  0  0  0  0  0  0  0  0
  -16.2787   -3.9814    0.0000 H   0  0  0  0  0  0  0  0  0  0  0  0
  -17.1354   -5.5467    0.0000 H   0  0  0  0  0  0  0  0  0  0  0  0
  -15.8890   -6.8237    0.0000 H   0  0  0  0  0  0  0  0  0  0  0  0
  -15.2882   -3.2130    0.0000 H   0  0  0  0  0  0  0  0  0  0  0  0
  -13.5591   -2.7721    0.0000 H   0  0  0  0  0  0  0  0  0  0  0  0
  -12.6596   -4.4778    0.0000 H   0  0  0  0  0  0  0  0  0  0  0  0
  -15.3681   -7.9332    0.0000 H   0  0  0  0  0  0  0  0  0  0  0  0
  -13.4115  -10.7031    0.0000 H   0  0  0  0  0  0  0  0  0  0  0  0
  -14.4764  -13.3133    0.0000 H   0  0  0  0  0  0  0  0  0  0  0  0
  -13.4490  -11.6814    0.0000 H   0  0  0  0  0  0  0  0  0  0  0  0
  -16.3193  -14.0838    0.0000 H   0  0  0  0  0  0  0  0  0  0  0  0
  -17.7480  -12.7886    0.0000 H   0  0  0  0  0  0  0  0  0  0  0  0
  -17.2020  -11.4160    0.0000 H   0  0  0  0  0  0  0  0  0  0  0  0
  1  2  1  0
  2  3  2  0
  2  4  1  0
  4  5  1  0
  5  6  1  0
  5  7  1  0
  7  8  2  0
  7  9  1  0
  9 10  1  0
 10 11  1  0
 11 12  1  0
 12 13  2  0
 13 14  1  0
 14 15  1  0
 15 16  2  0
 10 17  1  0
 17 18  2  0
 17 19  1  0
 19 20  1  0
 20 21  1  0
 21 22  1  0
 22 23  1  0
 22 24  1  0
 20 25  1  0
 25 26  2  0
 25 27  1  0
 28 27  1  6
 28 29  1  0
 29 30  1  0
 30 31  1  0
 31 32  1  0
 32 33  1  0
 33 34  1  0
 34 35  1  0
 28 36  1  0
 28 37  1  0
 37 38  2  0
 37 39  1  0
 39 40  1  0
 40 41  1  0
 41 42  1  0
 42 43  1  0
 42 44  1  0
 40 45  1  0
 45 46  2  0
 45 47  1  0
 47 48  1  0
 48 49  1  0
 49 50  1  0
 48 51  1  0
 51 52  2  0
 51 53  1  0
 53 54  1  0
 54 55  1  0
 55 56  1  0
 56 57  1  0
 56 58  1  0
 54 59  1  0
 59 60  2  0
 59 61  1  0
 61 62  1  0
 62 63  1  0
 63 64  1  0
 64 65  1  0
 65 66  2  0
 65 67  1  0
 62 68  1  0
 68 69  2  0
 68 70  1  0
 70 71  1  0
 71 72  1  0
 72 73  1  0
 73 74  1  0
 74 75  1  0
 75 76  1  0
 71 77  1  0
 77 78  2  0
 77 79  1  0
 79 80  1  0
 80 81  1  0
 81 82  1  0
 82 83  1  0
 82 84  1  0
 80 85  1  0
 85 86  2  0
 85 87  1  0
 87 88  1  0
 88 89  1  0
 89 90  1  0
 90 91  1  0
 91 92  1  0
 88 93  1  0
 88 94  1  1
 94 95  2  0
 94 96  1  0
 96 97  1  0
 97 98  1  0
 98 99  2  0
 98100  1  0
100101  1  0
101102  1  0
102103  1  0
103104  1  0
103105  1  0
101106  1  0
106107  2  0
106108  1  0
108109  1  0
109110  1  0
110111  1  0
109112  1  0
112113  2  0
112114  1  0
 16 12  1  0
 35 92  2  0
  1115  1  0
  1116  1  0
  1117  1  0
  4118  1  0
  5119  1  1
  6120  1  0
  6121  1  0
  6122  1  0
  9123  1  0
 10124  1  1
 11125  1  0
 11126  1  0
 13127  1  0
 14128  1  0
 15129  1  0
 19130  1  0
 20131  1  6
 21132  1  0
 21133  1  0
 22134  1  0
 23135  1  0
 23136  1  0
 23137  1  0
 24138  1  0
 24139  1  0
 24140  1  0
 27141  1  0
 29142  1  0
 29143  1  0
 30144  1  0
 30145  1  0
 31146  1  0
 31147  1  0
 32148  1  0
 32149  1  0
 33150  1  0
 33151  1  0
 34152  1  0
 34153  1  0
 35154  1  0
 36155  1  0
 36156  1  0
 36157  1  0
 39158  1  0
 40159  1  6
 41160  1  0
 41161  1  0
 42162  1  0
 43163  1  0
 43164  1  0
 43165  1  0
 44166  1  0
 44167  1  0
 44168  1  0
 47169  1  0
 48170  1  6
 49171  1  0
 49172  1  0
 50173  1  0
 53174  1  0
 54175  1  6
 55176  1  0
 55177  1  0
 56178  1  0
 57179  1  0
 57180  1  0
 57181  1  0
 58182  1  0
 58183  1  0
 58184  1  0
 61185  1  0
 62186  1  6
 63187  1  0
 63188  1  0
 64189  1  0
 64190  1  0
 70191  1  0
 71192  1  6
 72193  1  0
 72194  1  0
 73195  1  0
 73196  1  0
 74197  1  0
 74198  1  0
 75199  1  0
 75200  1  0
 76201  1  0
 76202  1  0
 76203  1  0
 79204  1  0
 80205  1  6
 81206  1  0
 81207  1  0
 82208  1  0
 83209  1  0
 83210  1  0
 83211  1  0
 84212  1  0
 84213  1  0
 84214  1  0
 87215  1  0
 89216  1  0
 89217  1  0
 90218  1  0
 90219  1  0
 91220  1  0
 91221  1  0
 92222  1  0
 93223  1  0
 93224  1  0
 93225  1  0
 96226  1  0
 97227  1  0
 97228  1  0
100229  1  0
101230  1  6
102231  1  0
102232  1  0
103233  1  0
104234  1  0
104235  1  0
104236  1  0
105237  1  0
105238  1  0
105239  1  0
108240  1  0
109241  1  1
110242  1  0
110243  1  0
111244  1  0
111245  1  0
111246  1  0
M  CHG  3  67  -1  76   1 114  -1
M  END
