
     RDKit          2D

303311  0  0  0  0  0  0  0  0999 V2000
   14.6675   -2.8314    0.0000 C   0  0  0  0  0  0  0  0  0  0  0  0
   15.9888   -3.5415    0.0000 N   0  0  0  0  0  0  0  0  0  0  0  0
   16.0345   -5.0408    0.0000 C   0  0  0  0  0  0  0  0  0  0  0  0
   14.7589   -5.8300    0.0000 C   0  0  0  0  0  0  0  0  0  0  0  0
   14.8046   -7.3293    0.0000 C   0  0  0  0  0  0  0  0  0  0  0  0
   16.1259   -8.0394    0.0000 C   0  0  0  0  0  0  0  0  0  0  0  0
   17.4015   -7.2502    0.0000 C   0  0  0  0  0  0  0  0  0  0  0  0
   17.3558   -5.7509    0.0000 C   0  0  0  0  0  0  0  0  0  0  0  0
   18.5463   -8.2195    0.0000 C   0  0  0  0  0  0  0  0  0  0  0  0
   17.9782   -9.6077    0.0000 O   0  0  0  0  0  0  0  0  0  0  0  0
   16.4823   -9.4965    0.0000 C   0  0  0  0  0  0  0  0  0  0  0  0
   15.5131  -10.6412    0.0000 O   0  0  0  0  0  0  0  0  0  0  0  0
   19.5835   -9.3031    0.0000 C   0  0  0  0  0  0  0  0  0  0  0  0
   21.0405   -8.9467    0.0000 C   0  0  0  0  0  0  0  0  0  0  0  0
   22.0777  -10.0303    0.0000 C   0  0  0  0  0  0  0  0  0  0  0  0
   21.6578  -11.4703    0.0000 C   0  0  0  0  0  0  0  0  0  0  0  0
   20.2008  -11.8268    0.0000 C   0  0  0  0  0  0  0  0  0  0  0  0
   19.1636  -10.7431    0.0000 C   0  0  0  0  0  0  0  0  0  0  0  0
   22.6950  -12.5540    0.0000 O   0  0  0  0  0  0  0  0  0  0  0  0
   21.4604   -7.5066    0.0000 O   0  0  0  0  0  0  0  0  0  0  0  0
   20.4232   -6.4230    0.0000 C   0  0  0  0  0  0  0  0  0  0  0  0
   18.9661   -6.7794    0.0000 C   0  0  0  0  0  0  0  0  0  0  0  0
   18.6089   -5.5295    0.0000 C   0  0  0  0  0  0  0  0  0  0  0  0
   18.8328   -4.7614    0.0000 C   0  0  0  0  0  0  0  0  0  0  0  0
   19.6099   -4.5714    0.0000 C   0  0  0  0  0  0  0  0  0  0  0  0
   20.1631   -5.1493    0.0000 C   0  0  0  0  0  0  0  0  0  0  0  0
   20.2257   -2.4593    0.0000 O   0  0  0  0  0  0  0  0  0  0  0  0
   13.3920   -3.6206    0.0000 S   0  0  0  0  0  0  0  0  0  0  0  0
   14.6219   -1.3321    0.0000 N   0  0  0  0  0  0  0  0  0  0  0  0
   13.3006   -0.6220    0.0000 C   0  0  0  0  0  0  0  0  0  0  0  0
   13.2549    0.8773    0.0000 C   0  0  0  0  0  0  0  0  0  0  0  0
   11.9336    1.5873    0.0000 C   0  0  0  0  0  0  0  0  0  0  0  0
   11.0257    0.3933    0.0000 O   0  0  0  0  0  0  0  0  0  0  0  0
   11.8879    3.0867    0.0000 N   0  0  0  0  0  0  0  0  0  0  0  0
   10.5666    3.7967    0.0000 C   0  0  0  0  0  0  0  0  0  0  0  0
   10.4628    2.3003    0.0000 C   0  0  0  0  0  0  0  0  0  0  0  0
    9.9225    0.9010    0.0000 C   0  0  0  0  0  0  0  0  0  0  0  0
    8.9938   -0.2769    0.0000 C   0  0  0  0  0  0  0  0  0  0  0  0
    7.7591   -1.1287    0.0000 C   0  0  0  0  0  0  0  0  0  0  0  0
   11.7573    4.7090    0.0000 C   0  0  0  0  0  0  0  0  0  0  0  0
   10.2248    5.2573    0.0000 C   0  0  0  0  0  0  0  0  0  0  0  0
   11.6180    5.8130    0.0000 O   0  0  0  0  0  0  0  0  0  0  0  0
    9.4676    6.5521    0.0000 N   0  0  0  0  0  0  0  0  0  0  0  0
    8.3624    7.5663    0.0000 C   0  0  0  0  0  0  0  0  0  0  0  0
    8.3915    9.0660    0.0000 C   0  0  0  0  0  0  0  0  0  0  0  0
    9.7048    9.7907    0.0000 C   0  0  0  0  0  0  0  0  0  0  0  0
    9.7339   11.2904    0.0000 C   0  0  0  0  0  0  0  0  0  0  0  0
   11.0473   12.0150    0.0000 C   0  0  0  0  0  0  0  0  0  0  0  0
   11.0764   13.5148    0.0000 N   0  0  0  0  0  0  0  0  0  0  0  0
    7.0073    8.2096    0.0000 C   0  0  0  0  0  0  0  0  0  0  0  0
    7.4415    9.6454    0.0000 O   0  0  0  0  0  0  0  0  0  0  0  0
    5.5229    8.4250    0.0000 N   0  0  0  0  0  0  0  0  0  0  0  0
    4.0409    8.1932    0.0000 C   0  0  0  0  0  0  0  0  0  0  0  0
    2.8865    9.1510    0.0000 C   0  0  0  0  0  0  0  0  0  0  0  0
    3.3172   10.5879    0.0000 C   0  0  0  0  0  0  0  0  0  0  0  0
    1.4742    9.6562    0.0000 C   0  0  0  0  0  0  0  0  0  0  0  0
    1.3874   11.1537    0.0000 C   0  0  0  0  0  0  0  0  0  0  0  0
    2.6931    7.5349    0.0000 C   0  0  0  0  0  0  0  0  0  0  0  0
    1.6971    8.6565    0.0000 O   0  0  0  0  0  0  0  0  0  0  0  0
    1.5991    6.5086    0.0000 N   0  0  0  0  0  0  0  0  0  0  0  0
    0.8563    5.2054    0.0000 C   0  0  0  0  0  0  0  0  0  0  0  0
   -0.6122    4.9001    0.0000 C   0  0  0  0  0  0  0  0  0  0  0  0
   -1.6110    6.0192    0.0000 C   0  0  0  0  0  0  0  0  0  0  0  0
   -3.1034    5.8691    0.0000 C   0  0  0  0  0  0  0  0  0  0  0  0
   -3.7075    7.2421    0.0000 N   0  0  0  0  0  0  0  0  0  0  0  0
   -2.5883    8.2408    0.0000 C   0  0  0  0  0  0  0  0  0  0  0  0
   -2.5816    9.7408    0.0000 C   0  0  0  0  0  0  0  0  0  0  0  0
   -1.2793   10.4850    0.0000 C   0  0  0  0  0  0  0  0  0  0  0  0
    0.0164    9.7293    0.0000 C   0  0  0  0  0  0  0  0  0  0  0  0
    0.0098    8.2293    0.0000 C   0  0  0  0  0  0  0  0  0  0  0  0
   -1.2926    7.4851    0.0000 C   0  0  0  0  0  0  0  0  0  0  0  0
    0.5307    3.7412    0.0000 C   0  0  0  0  0  0  0  0  0  0  0  0
   -0.2723    4.1152    0.0000 O   0  0  0  0  0  0  0  0  0  0  0  0
    0.6510    2.2460    0.0000 N   0  0  0  0  0  0  0  0  0  0  0  0
    1.2068    0.8528    0.0000 C   0  0  0  0  0  0  0  0  0  0  0  0
    2.1485   -0.3148    0.0000 C   0  0  0  0  0  0  0  0  0  0  0  0
    3.3925   -1.1529    0.0000 C   0  0  0  0  0  0  0  0  0  0  0  0
    4.8283   -1.5871    0.0000 C   0  0  0  0  0  0  0  0  0  0  0  0
    6.3282   -1.5788    0.0000 C   0  0  0  0  0  0  0  0  0  0  0  0
    1.1772   -0.7408    0.0000 C   0  0  0  0  0  0  0  0  0  0  0  0
    1.5068   -2.0674    0.0000 C   0  0  0  0  0  0  0  0  0  0  0  0
    1.5794   -3.4324    0.0000 C   0  0  0  0  0  0  0  0  0  0  0  0
    1.3924   -4.7864    0.0000 C   0  0  0  0  0  0  0  0  0  0  0  0
   -0.1966    1.6085    0.0000 C   0  0  0  0  0  0  0  0  0  0  0  0
    1.4581    3.0584    0.0000 O   0  0  0  0  0  0  0  0  0  0  0  0
   -1.1910    2.5463    0.0000 N   0  0  0  0  0  0  0  0  0  0  0  0
   -2.3450    3.2789    0.0000 C   0  0  0  0  0  0  0  0  0  0  0  0
   -2.1549    5.3975    0.0000 C   0  0  0  0  0  0  0  0  0  0  0  0
   -3.5128    6.0347    0.0000 C   0  0  0  0  0  0  0  0  0  0  0  0
   -3.6400    7.5293    0.0000 C   0  0  0  0  0  0  0  0  0  0  0  0
   -4.8034    8.4761    0.0000 N   0  0  0  0  0  0  0  0  0  0  0  0
   -2.6532    8.6590    0.0000 O   0  0  0  0  0  0  0  0  0  0  0  0
   -3.6168    3.7799    0.0000 C   0  0  0  0  0  0  0  0  0  0  0  0
   -3.7342    5.9201    0.0000 O   0  0  0  0  0  0  0  0  0  0  0  0
   -4.9605    4.0312    0.0000 N   0  0  0  0  0  0  0  0  0  0  0  0
   -6.3274    4.0236    0.0000 C   0  0  0  0  0  0  0  0  0  0  0  0
   -7.3128    5.9087    0.0000 C   0  0  0  0  0  0  0  0  0  0  0  0
   -6.7409    7.2954    0.0000 C   0  0  0  0  0  0  0  0  0  0  0  0
   -7.6559    8.4840    0.0000 N   0  0  0  0  0  0  0  0  0  0  0  0
   -5.3462    7.8474    0.0000 O   0  0  0  0  0  0  0  0  0  0  0  0
   -7.6681    3.7575    0.0000 C   0  0  0  0  0  0  0  0  0  0  0  0
   -8.4716    5.8017    0.0000 O   0  0  0  0  0  0  0  0  0  0  0  0
   -8.9343    3.2425    0.0000 N   0  0  0  0  0  0  0  0  0  0  0  0
  -10.0801    2.4971    0.0000 C   0  0  0  0  0  0  0  0  0  0  0  0
  -11.9282    3.5502    0.0000 C   0  0  0  0  0  0  0  0  0  0  0  0
  -12.1969    5.0259    0.0000 C   0  0  0  0  0  0  0  0  0  0  0  0
  -13.6092    5.5311    0.0000 C   0  0  0  0  0  0  0  0  0  0  0  0
  -13.8779    7.0069    0.0000 N   0  0  0  0  0  0  0  0  0  0  0  0
  -15.2902    7.5121    0.0000 C   0  0  0  0  0  0  0  0  0  0  0  0
  -15.5589    8.9878    0.0000 N   0  0  0  0  0  0  0  0  0  0  0  0
  -16.4340    6.5416    0.0000 N   0  0  0  0  0  0  0  0  0  0  0  0
  -11.0642    1.5484    0.0000 C   0  0  0  0  0  0  0  0  0  0  0  0
  -12.8453    2.8337    0.0000 O   0  0  0  0  0  0  0  0  0  0  0  0
  -11.8509    0.4305    0.0000 N   0  0  0  0  0  0  0  0  0  0  0  0
  -12.4119   -0.8160    0.0000 C   0  0  0  0  0  0  0  0  0  0  0  0
  -14.5359   -0.9293    0.0000 C   0  0  0  0  0  0  0  0  0  0  0  0
  -15.5598    0.1670    0.0000 C   0  0  0  0  0  0  0  0  0  0  0  0
  -17.0210   -0.1716    0.0000 C   0  0  0  0  0  0  0  0  0  0  0  0
  -18.0449    0.9247    0.0000 N   0  0  0  0  0  0  0  0  0  0  0  0
  -19.5062    0.5861    0.0000 C   0  0  0  0  0  0  0  0  0  0  0  0
  -20.5300    1.6823    0.0000 N   0  0  0  0  0  0  0  0  0  0  0  0
  -19.9436   -0.8487    0.0000 N   0  0  0  0  0  0  0  0  0  0  0  0
  -12.7268   -2.1461    0.0000 C   0  0  0  0  0  0  0  0  0  0  0  0
  -14.9200   -2.0278    0.0000 O   0  0  0  0  0  0  0  0  0  0  0  0
  -12.7843   -3.5119    0.0000 N   0  0  0  0  0  0  0  0  0  0  0  0
  -12.5822   -4.8638    0.0000 C   0  0  0  0  0  0  0  0  0  0  0  0
  -14.3079   -6.1074    0.0000 C   0  0  0  0  0  0  0  0  0  0  0  0
  -12.1280   -6.1530    0.0000 C   0  0  0  0  0  0  0  0  0  0  0  0
  -14.0371   -7.2392    0.0000 O   0  0  0  0  0  0  0  0  0  0  0  0
  -11.4380   -7.3330    0.0000 N   0  0  0  0  0  0  0  0  0  0  0  0
  -10.5372   -8.3611    0.0000 C   0  0  0  0  0  0  0  0  0  0  0  0
  -11.3165  -10.3403    0.0000 C   0  0  0  0  0  0  0  0  0  0  0  0
  -12.7390  -10.8162    0.0000 C   0  0  0  0  0  0  0  0  0  0  0  0
  -13.0381  -12.2861    0.0000 C   0  0  0  0  0  0  0  0  0  0  0  0
  -14.4606  -12.7620    0.0000 C   0  0  0  0  0  0  0  0  0  0  0  0
  -14.7597  -14.2319    0.0000 N   0  0  0  0  0  0  0  0  0  0  0  0
   -9.4580   -9.2001    0.0000 C   0  0  0  0  0  0  0  0  0  0  0  0
  -10.4768  -11.1460    0.0000 O   0  0  0  0  0  0  0  0  0  0  0  0
   -8.2396   -9.8197    0.0000 N   0  0  0  0  0  0  0  0  0  0  0  0
   -6.9260  -10.1976    0.0000 C   0  0  0  0  0  0  0  0  0  0  0  0
   -5.5645  -10.3200    0.0000 C   0  0  0  0  0  0  0  0  0  0  0  0
   -4.2045  -10.1825    0.0000 C   0  0  0  0  0  0  0  0  0  0  0  0
   -2.8951   -9.7902    0.0000 C   0  0  0  0  0  0  0  0  0  0  0  0
   -1.6837   -9.1571    0.0000 C   0  0  0  0  0  0  0  0  0  0  0  0
   -0.6139   -8.3062    0.0000 C   0  0  0  0  0  0  0  0  0  0  0  0
    0.2755   -7.2682    0.0000 C   0  0  0  0  0  0  0  0  0  0  0  0
    0.9524   -6.0806    0.0000 C   0  0  0  0  0  0  0  0  0  0  0  0
   -8.0663  -11.9932    0.0000 C   0  0  0  0  0  0  0  0  0  0  0  0
   -6.5116  -12.2839    0.0000 C   0  0  0  0  0  0  0  0  0  0  0  0
   -7.3014  -13.5591    0.0000 O   0  0  0  0  0  0  0  0  0  0  0  0
   -5.1285  -12.8646    0.0000 O   0  0  0  0  0  0  0  0  0  0  0  0
   17.1587   -2.6027    0.0000 H   0  0  0  0  0  0  0  0  0  0  0  0
   13.4377   -5.1199    0.0000 H   0  0  0  0  0  0  0  0  0  0  0  0
   13.5290   -8.1186    0.0000 H   0  0  0  0  0  0  0  0  0  0  0  0
   18.4025   -4.6765    0.0000 H   0  0  0  0  0  0  0  0  0  0  0  0
   23.5347   -9.6739    0.0000 H   0  0  0  0  0  0  0  0  0  0  0  0
   19.7809  -13.2668    0.0000 H   0  0  0  0  0  0  0  0  0  0  0  0
   17.7066  -11.0995    0.0000 H   0  0  0  0  0  0  0  0  0  0  0  0
   22.2752  -13.9940    0.0000 H   0  0  0  0  0  0  0  0  0  0  0  0
   16.4719   -6.0522    0.0000 H   0  0  0  0  0  0  0  0  0  0  0  0
   17.4514   -3.0538    0.0000 H   0  0  0  0  0  0  0  0  0  0  0  0
   22.3001   -4.6265    0.0000 H   0  0  0  0  0  0  0  0  0  0  0  0
   21.6827   -2.1029    0.0000 H   0  0  0  0  0  0  0  0  0  0  0  0
   15.8974   -0.5429    0.0000 H   0  0  0  0  0  0  0  0  0  0  0  0
   12.8307   -2.0465    0.0000 H   0  0  0  0  0  0  0  0  0  0  0  0
   11.8161   -0.4067    0.0000 H   0  0  0  0  0  0  0  0  0  0  0  0
   14.7393    0.6619    0.0000 H   0  0  0  0  0  0  0  0  0  0  0  0
   13.7247    2.3018    0.0000 H   0  0  0  0  0  0  0  0  0  0  0  0
   13.2502    3.7145    0.0000 H   0  0  0  0  0  0  0  0  0  0  0  0
   11.9537    2.4653    0.0000 H   0  0  0  0  0  0  0  0  0  0  0  0
   11.3781    1.1119    0.0000 H   0  0  0  0  0  0  0  0  0  0  0  0
   11.2838    0.2711    0.0000 H   0  0  0  0  0  0  0  0  0  0  0  0
   10.7713   -0.3358    0.0000 H   0  0  0  0  0  0  0  0  0  0  0  0
   10.3945   -0.8137    0.0000 H   0  0  0  0  0  0  0  0  0  0  0  0
    9.2624   -1.7526    0.0000 H   0  0  0  0  0  0  0  0  0  0  0  0
    8.4174   -2.4766    0.0000 H   0  0  0  0  0  0  0  0  0  0  0  0
   13.2025    4.3072    0.0000 H   0  0  0  0  0  0  0  0  0  0  0  0
   12.5641    5.9736    0.0000 H   0  0  0  0  0  0  0  0  0  0  0  0
   10.9303    5.9605    0.0000 H   0  0  0  0  0  0  0  0  0  0  0  0
   10.6351    7.4938    0.0000 H   0  0  0  0  0  0  0  0  0  0  0  0
    9.8030    7.9841    0.0000 H   0  0  0  0  0  0  0  0  0  0  0  0
    7.7365   10.4155    0.0000 H   0  0  0  0  0  0  0  0  0  0  0  0
    6.8974    9.1997    0.0000 H   0  0  0  0  0  0  0  0  0  0  0  0
   11.2040    9.8401    0.0000 H   0  0  0  0  0  0  0  0  0  0  0  0
   10.3598    8.4412    0.0000 H   0  0  0  0  0  0  0  0  0  0  0  0
    9.0789   12.6398    0.0000 H   0  0  0  0  0  0  0  0  0  0  0  0
    8.2347   11.2410    0.0000 H   0  0  0  0  0  0  0  0  0  0  0  0
   12.5292   12.2468    0.0000 H   0  0  0  0  0  0  0  0  0  0  0  0
   11.7022   10.6656    0.0000 H   0  0  0  0  0  0  0  0  0  0  0  0
   12.3897   14.2394    0.0000 H   0  0  0  0  0  0  0  0  0  0  0  0
   10.5908   14.9340    0.0000 H   0  0  0  0  0  0  0  0  0  0  0  0
    9.5772   13.4654    0.0000 H   0  0  0  0  0  0  0  0  0  0  0  0
    5.5146    9.9250    0.0000 H   0  0  0  0  0  0  0  0  0  0  0  0
    4.6125    9.5800    0.0000 H   0  0  0  0  0  0  0  0  0  0  0  0
    1.8505    8.0663    0.0000 H   0  0  0  0  0  0  0  0  0  0  0  0
    2.1162   11.7425    0.0000 H   0  0  0  0  0  0  0  0  0  0  0  0
    3.8816   11.9328    0.0000 H   0  0  0  0  0  0  0  0  0  0  0  0
    4.6022   10.3004    0.0000 H   0  0  0  0  0  0  0  0  0  0  0  0
    0.0167   10.0111    0.0000 H   0  0  0  0  0  0  0  0  0  0  0  0
    1.2219    8.1776    0.0000 H   0  0  0  0  0  0  0  0  0  0  0  0
   -0.2068   11.6372    0.0000 H   0  0  0  0  0  0  0  0  0  0  0  0
    1.4578   12.6106    0.0000 H   0  0  0  0  0  0  0  0  0  0  0  0
    2.6589   11.5030    0.0000 H   0  0  0  0  0  0  0  0  0  0  0  0
    0.5432    7.5740    0.0000 H   0  0  0  0  0  0  0  0  0  0  0  0
   -0.0260    6.4185    0.0000 H   0  0  0  0  0  0  0  0  0  0  0  0
   -2.0409    4.4430    0.0000 H   0  0  0  0  0  0  0  0  0  0  0  0
   -0.5928    3.4002    0.0000 H   0  0  0  0  0  0  0  0  0  0  0  0
   -4.0115    4.6752    0.0000 H   0  0  0  0  0  0  0  0  0  0  0  0
   -5.1733    7.5605    0.0000 H   0  0  0  0  0  0  0  0  0  0  0  0
   -3.8773   10.4966    0.0000 H   0  0  0  0  0  0  0  0  0  0  0  0
   -1.2726   11.9850    0.0000 H   0  0  0  0  0  0  0  0  0  0  0  0
    1.2183   10.6267    0.0000 H   0  0  0  0  0  0  0  0  0  0  0  0
    1.3054    7.4735    0.0000 H   0  0  0  0  0  0  0  0  0  0  0  0
   -0.8095    1.9042    0.0000 H   0  0  0  0  0  0  0  0  0  0  0  0
    2.0783   -1.8131    0.0000 H   0  0  0  0  0  0  0  0  0  0  0  0
    0.6969   -0.6929    0.0000 H   0  0  0  0  0  0  0  0  0  0  0  0
    3.7671   -2.6054    0.0000 H   0  0  0  0  0  0  0  0  0  0  0  0
    2.4845   -2.3469    0.0000 H   0  0  0  0  0  0  0  0  0  0  0  0
    5.4528   -2.9509    0.0000 H   0  0  0  0  0  0  0  0  0  0  0  0
    4.3126   -2.9957    0.0000 H   0  0  0  0  0  0  0  0  0  0  0  0
    6.5600   -3.0608    0.0000 H   0  0  0  0  0  0  0  0  0  0  0  0
    2.7768    0.6612    0.0000 H   0  0  0  0  0  0  0  0  0  0  0  0
    3.2522   -1.0067    0.0000 H   0  0  0  0  0  0  0  0  0  0  0  0
    3.6147   -1.4679    0.0000 H   0  0  0  0  0  0  0  0  0  0  0  0
    3.4939   -2.7212    0.0000 H   0  0  0  0  0  0  0  0  0  0  0  0
    3.7627   -3.2426    0.0000 H   0  0  0  0  0  0  0  0  0  0  0  0
    3.5190   -4.3056    0.0000 H   0  0  0  0  0  0  0  0  0  0  0  0
    3.5332   -5.2933    0.0000 H   0  0  0  0  0  0  0  0  0  0  0  0
    0.0081    4.3865    0.0000 H   0  0  0  0  0  0  0  0  0  0  0  0
   -0.9713    4.9678    0.0000 H   0  0  0  0  0  0  0  0  0  0  0  0
   -2.1252    6.8972    0.0000 H   0  0  0  0  0  0  0  0  0  0  0  0
   -0.6884    5.0820    0.0000 H   0  0  0  0  0  0  0  0  0  0  0  0
   -4.9299    6.5265    0.0000 H   0  0  0  0  0  0  0  0  0  0  0  0
   -4.3975    4.8233    0.0000 H   0  0  0  0  0  0  0  0  0  0  0  0
   -5.1250    9.6611    0.0000 H   0  0  0  0  0  0  0  0  0  0  0  0
   -6.4687    7.6886    0.0000 H   0  0  0  0  0  0  0  0  0  0  0  0
   -4.9466    6.2276    0.0000 H   0  0  0  0  0  0  0  0  0  0  0  0
   -5.9083    6.1380    0.0000 H   0  0  0  0  0  0  0  0  0  0  0  0
   -8.4717    6.8610    0.0000 H   0  0  0  0  0  0  0  0  0  0  0  0
   -8.5623    5.0789    0.0000 H   0  0  0  0  0  0  0  0  0  0  0  0
   -7.0841    9.8707    0.0000 H   0  0  0  0  0  0  0  0  0  0  0  0
   -9.1428    8.2859    0.0000 H   0  0  0  0  0  0  0  0  0  0  0  0
   -9.7860    5.2671    0.0000 H   0  0  0  0  0  0  0  0  0  0  0  0
  -10.5075    4.5449    0.0000 H   0  0  0  0  0  0  0  0  0  0  0  0
  -13.4282    3.5419    0.0000 H   0  0  0  0  0  0  0  0  0  0  0  0
  -12.5308    2.1765    0.0000 H   0  0  0  0  0  0  0  0  0  0  0  0
  -11.9446    6.5045    0.0000 H   0  0  0  0  0  0  0  0  0  0  0  0
  -10.7435    5.3969    0.0000 H   0  0  0  0  0  0  0  0  0  0  0  0
  -15.1092    5.5228    0.0000 H   0  0  0  0  0  0  0  0  0  0  0  0
  -14.0399    4.0943    0.0000 H   0  0  0  0  0  0  0  0  0  0  0  0
  -12.7342    7.9774    0.0000 H   0  0  0  0  0  0  0  0  0  0  0  0
  -16.9712    9.4931    0.0000 H   0  0  0  0  0  0  0  0  0  0  0  0
  -14.4152    9.9584    0.0000 H   0  0  0  0  0  0  0  0  0  0  0  0
  -17.8463    7.0468    0.0000 H   0  0  0  0  0  0  0  0  0  0  0  0
  -16.1653    5.0658    0.0000 H   0  0  0  0  0  0  0  0  0  0  0  0
  -13.6620    1.6733    0.0000 H   0  0  0  0  0  0  0  0  0  0  0  0
  -13.8785    0.6757    0.0000 H   0  0  0  0  0  0  0  0  0  0  0  0
  -15.7933   -1.7472    0.0000 H   0  0  0  0  0  0  0  0  0  0  0  0
  -14.3002   -2.4106    0.0000 H   0  0  0  0  0  0  0  0  0  0  0  0
  -16.1469    1.5473    0.0000 H   0  0  0  0  0  0  0  0  0  0  0  0
  -14.5377    1.2648    0.0000 H   0  0  0  0  0  0  0  0  0  0  0  0
  -18.2784   -0.9895    0.0000 H   0  0  0  0  0  0  0  0  0  0  0  0
  -16.6065   -1.6132    0.0000 H   0  0  0  0  0  0  0  0  0  0  0  0
  -17.6074    2.3594    0.0000 H   0  0  0  0  0  0  0  0  0  0  0  0
  -21.9913    1.3438    0.0000 H   0  0  0  0  0  0  0  0  0  0  0  0
  -20.0926    3.1171    0.0000 H   0  0  0  0  0  0  0  0  0  0  0  0
  -21.4049   -1.1873    0.0000 H   0  0  0  0  0  0  0  0  0  0  0  0
  -18.9198   -1.9449    0.0000 H   0  0  0  0  0  0  0  0  0  0  0  0
  -14.9811   -3.6287    0.0000 H   0  0  0  0  0  0  0  0  0  0  0  0
  -14.6893   -4.5724    0.0000 H   0  0  0  0  0  0  0  0  0  0  0  0
  -15.7618   -5.7387    0.0000 H   0  0  0  0  0  0  0  0  0  0  0  0
  -15.0856   -7.3901    0.0000 H   0  0  0  0  0  0  0  0  0  0  0  0
  -13.3087   -7.2262    0.0000 H   0  0  0  0  0  0  0  0  0  0  0  0
  -13.3208   -8.4641    0.0000 H   0  0  0  0  0  0  0  0  0  0  0  0
  -12.5033   -9.0755    0.0000 H   0  0  0  0  0  0  0  0  0  0  0  0
  -11.0948  -11.8238    0.0000 H   0  0  0  0  0  0  0  0  0  0  0  0
   -9.8711  -10.7412    0.0000 H   0  0  0  0  0  0  0  0  0  0  0  0
  -14.2225  -10.5944    0.0000 H   0  0  0  0  0  0  0  0  0  0  0  0
  -13.3131   -9.4304    0.0000 H   0  0  0  0  0  0  0  0  0  0  0  0
  -12.6372  -13.7315    0.0000 H   0  0  0  0  0  0  0  0  0  0  0  0
  -11.5546  -12.5078    0.0000 H   0  0  0  0  0  0  0  0  0  0  0  0
  -15.9601  -12.7227    0.0000 H   0  0  0  0  0  0  0  0  0  0  0  0
  -14.8614  -11.3165    0.0000 H   0  0  0  0  0  0  0  0  0  0  0  0
  -16.1821  -14.7078    0.0000 H   0  0  0  0  0  0  0  0  0  0  0  0
  -14.5380  -15.7154    0.0000 H   0  0  0  0  0  0  0  0  0  0  0  0
  -13.2761  -14.4537    0.0000 H   0  0  0  0  0  0  0  0  0  0  0  0
   -9.2120  -11.7892    0.0000 H   0  0  0  0  0  0  0  0  0  0  0  0
   -4.7628  -12.2902    0.0000 H   0  0  0  0  0  0  0  0  0  0  0  0
   -6.0117  -12.4506    0.0000 H   0  0  0  0  0  0  0  0  0  0  0  0
   -3.1857  -12.0820    0.0000 H   0  0  0  0  0  0  0  0  0  0  0  0
   -4.2404  -12.3592    0.0000 H   0  0  0  0  0  0  0  0  0  0  0  0
   -1.5352  -11.4625    0.0000 H   0  0  0  0  0  0  0  0  0  0  0  0
   -2.7016  -11.9369    0.0000 H   0  0  0  0  0  0  0  0  0  0  0  0
   -0.0318  -10.5418    0.0000 H   0  0  0  0  0  0  0  0  0  0  0  0
   -1.0873  -11.2284    0.0000 H   0  0  0  0  0  0  0  0  0  0  0  0
    1.2702   -9.3533    0.0000 H   0  0  0  0  0  0  0  0  0  0  0  0
    0.3637  -10.2272    0.0000 H   0  0  0  0  0  0  0  0  0  0  0  0
    2.3455   -7.7579    0.0000 H   0  0  0  0  0  0  0  0  0  0  0  0
    1.5990   -8.9695    0.0000 H   0  0  0  0  0  0  0  0  0  0  0  0
    2.9587   -6.9835    0.0000 H   0  0  0  0  0  0  0  0  0  0  0  0
   -7.7907  -13.4676    0.0000 H   0  0  0  0  0  0  0  0  0  0  0  0
   -9.3011  -12.8447    0.0000 H   0  0  0  0  0  0  0  0  0  0  0  0
   -9.2417  -11.0613    0.0000 H   0  0  0  0  0  0  0  0  0  0  0  0
  1  2  1  0
  2  3  1  0
  3  4  2  0
  4  5  1  0
  5  6  2  0
  6  7  1  0
  7  8  2  0
  7  9  1  0
  9 10  1  0
 10 11  1  0
 11 12  2  0
  9 13  1  0
 13 14  1  0
 14 15  2  0
 15 16  1  0
 16 17  2  0
 17 18  1  0
 16 19  1  0
 14 20  1  0
 20 21  1  0
 21 22  2  0
 22 23  1  0
 23 24  2  0
 24 25  1  0
 25 26  2  0
 25 27  1  0
  1 28  2  0
  1 29  1  0
 29 30  1  0
 30 31  1  0
 31 32  1  0
 32 33  2  0
 32 34  1  0
 35 34  1  1
 35 36  1  0
 36 37  1  0
 37 38  1  0
 38 39  1  0
 35 40  1  0
 35 41  1  0
 41 42  2  0
 41 43  1  0
 43 44  1  0
 44 45  1  0
 45 46  1  0
 46 47  1  0
 47 48  1  0
 48 49  1  0
 44 50  1  0
 50 51  2  0
 50 52  1  0
 52 53  1  0
 53 54  1  0
 54 55  1  0
 54 56  1  0
 56 57  1  0
 53 58  1  0
 58 59  2  0
 58 60  1  0
 60 61  1  0
 61 62  1  0
 62 63  1  0
 63 64  2  0
 64 65  1  0
 65 66  1  0
 66 67  2  0
 67 68  1  0
 68 69  2  0
 69 70  1  0
 70 71  2  0
 61 72  1  0
 72 73  2  0
 72 74  1  0
 74 75  1  0
 75 76  1  0
 76 77  1  0
 77 78  1  0
 78 79  1  0
 75 80  1  0
 80 81  1  0
 81 82  1  0
 82 83  1  0
 75 84  1  0
 84 85  2  0
 84 86  1  0
 86 87  1  0
 87 88  1  0
 88 89  1  0
 89 90  1  0
 90 91  1  0
 90 92  2  0
 87 93  1  0
 93 94  2  0
 93 95  1  0
 95 96  1  0
 96 97  1  0
 97 98  1  0
 98 99  1  0
 98100  2  0
 96101  1  0
101102  2  0
101103  1  0
103104  1  0
104105  1  0
105106  1  0
106107  1  0
107108  1  0
108109  1  0
109110  2  3
109111  1  0
104112  1  0
112113  2  0
112114  1  0
114115  1  0
115116  1  0
116117  1  0
117118  1  0
118119  1  0
119120  1  0
120121  2  3
120122  1  0
115123  1  0
123124  2  0
123125  1  0
125126  1  0
126127  1  0
126128  1  0
128129  2  0
128130  1  0
130131  1  0
131132  1  0
132133  1  0
133134  1  0
134135  1  0
135136  1  0
131137  1  0
137138  2  0
137139  1  0
139140  1  0
140141  1  0
141142  1  0
142143  1  0
143144  1  0
144145  1  0
145146  1  0
146147  1  0
140148  1  0
140149  1  1
149150  2  0
149151  1  0
  8  3  1  0
 71 63  1  0
 11  6  1  0
 71 66  1  0
 18 13  2  0
 39 79  2  0
 22  9  1  0
 83147  2  0
 26 21  1  0
  2152  1  0
  4153  1  0
  5154  1  0
  8155  1  0
 15156  1  0
 17157  1  0
 18158  1  0
 19159  1  0
 23160  1  0
 24161  1  0
 26162  1  0
 27163  1  0
 29164  1  0
 30165  1  0
 30166  1  0
 31167  1  0
 31168  1  0
 34169  1  0
 36170  1  0
 36171  1  0
 37172  1  0
 37173  1  0
 38174  1  0
 38175  1  0
 39176  1  0
 40177  1  0
 40178  1  0
 40179  1  0
 43180  1  0
 44181  1  6
 45182  1  0
 45183  1  0
 46184  1  0
 46185  1  0
 47186  1  0
 47187  1  0
 48188  1  0
 48189  1  0
 49190  1  0
 49191  1  0
 49192  1  0
 52193  1  0
 53194  1  6
 54195  1  1
 55196  1  0
 55197  1  0
 55198  1  0
 56199  1  0
 56200  1  0
 57201  1  0
 57202  1  0
 57203  1  0
 60204  1  0
 61205  1  6
 62206  1  0
 62207  1  0
 64208  1  0
 65209  1  0
 67210  1  0
 68211  1  0
 69212  1  0
 70213  1  0
 74214  1  0
 76215  1  0
 76216  1  0
 77217  1  0
 77218  1  0
 78219  1  0
 78220  1  0
 79221  1  0
 80222  1  0
 80223  1  0
 81224  1  0
 81225  1  0
 82226  1  0
 82227  1  0
 83228  1  0
 86229  1  0
 87230  1  6
 88231  1  0
 88232  1  0
 89233  1  0
 89234  1  0
 91235  1  0
 91236  1  0
 95237  1  0
 96238  1  6
 97239  1  0
 97240  1  0
 99241  1  0
 99242  1  0
103243  1  0
104244  1  6
105245  1  0
105246  1  0
106247  1  0
106248  1  0
107249  1  0
107250  1  0
108251  1  0
110252  1  0
110253  1  0
111254  1  0
111255  1  0
114256  1  0
115257  1  6
116258  1  0
116259  1  0
117260  1  0
117261  1  0
118262  1  0
118263  1  0
119264  1  0
121265  1  0
121266  1  0
122267  1  0
122268  1  0
125269  1  0
126270  1  6
127271  1  0
127272  1  0
127273  1  0
130274  1  0
131275  1  6
132276  1  0
132277  1  0
133278  1  0
133279  1  0
134280  1  0
134281  1  0
135282  1  0
135283  1  0
136284  1  0
136285  1  0
136286  1  0
139287  1  0
141288  1  0
141289  1  0
142290  1  0
142291  1  0
143292  1  0
143293  1  0
144294  1  0
144295  1  0
145296  1  0
145297  1  0
146298  1  0
146299  1  0
147300  1  0
148301  1  0
148302  1  0
148303  1  0
M  CHG  5  49   1 110   1 121   1 136   1 151  -1
M  END
