
     RDKit          2D

298304  0  0  0  0  0  0  0  0999 V2000
   20.1202   -2.8820    0.0000 C   0  0  0  0  0  0  0  0  0  0  0  0
   21.4195   -2.1325    0.0000 N   0  0  0  0  0  0  0  0  0  0  0  0
   22.7182   -2.8829    0.0000 C   0  0  0  0  0  0  0  0  0  0  0  0
   22.7177   -4.3829    0.0000 C   0  0  0  0  0  0  0  0  0  0  0  0
   24.0165   -5.1333    0.0000 C   0  0  0  0  0  0  0  0  0  0  0  0
   25.3158   -4.3838    0.0000 C   0  0  0  0  0  0  0  0  0  0  0  0
   25.3163   -2.8838    0.0000 C   0  0  0  0  0  0  0  0  0  0  0  0
   24.0175   -2.1333    0.0000 C   0  0  0  0  0  0  0  0  0  0  0  0
   26.7431   -2.4207    0.0000 C   0  0  0  0  0  0  0  0  0  0  0  0
   27.6243   -3.6346    0.0000 O   0  0  0  0  0  0  0  0  0  0  0  0
   26.7422   -4.8478    0.0000 C   0  0  0  0  0  0  0  0  0  0  0  0
   27.2053   -6.2745    0.0000 O   0  0  0  0  0  0  0  0  0  0  0  0
   28.2104   -2.1094    0.0000 C   0  0  0  0  0  0  0  0  0  0  0  0
   28.6744   -0.6830    0.0000 C   0  0  0  0  0  0  0  0  0  0  0  0
   30.1417   -0.3716    0.0000 C   0  0  0  0  0  0  0  0  0  0  0  0
   31.1450   -1.4866    0.0000 C   0  0  0  0  0  0  0  0  0  0  0  0
   30.6810   -2.9131    0.0000 C   0  0  0  0  0  0  0  0  0  0  0  0
   29.2137   -3.2244    0.0000 C   0  0  0  0  0  0  0  0  0  0  0  0
   32.6124   -1.1753    0.0000 O   0  0  0  0  0  0  0  0  0  0  0  0
   27.6711    0.4321    0.0000 O   0  0  0  0  0  0  0  0  0  0  0  0
   26.2038    0.1207    0.0000 C   0  0  0  0  0  0  0  0  0  0  0  0
   25.7397   -1.3057    0.0000 C   0  0  0  0  0  0  0  0  0  0  0  0
   24.4890   -0.9514    0.0000 C   0  0  0  0  0  0  0  0  0  0  0  0
   23.9538   -0.3567    0.0000 C   0  0  0  0  0  0  0  0  0  0  0  0
   24.2013    0.4041    0.0000 C   0  0  0  0  0  0  0  0  0  0  0  0
   24.9839    0.5701    0.0000 C   0  0  0  0  0  0  0  0  0  0  0  0
   22.7298    2.0395    0.0000 O   0  0  0  0  0  0  0  0  0  0  0  0
   20.1197   -4.3820    0.0000 S   0  0  0  0  0  0  0  0  0  0  0  0
   18.8214   -2.1316    0.0000 N   0  0  0  0  0  0  0  0  0  0  0  0
   17.5221   -2.8811    0.0000 C   0  0  0  0  0  0  0  0  0  0  0  0
   16.2233   -2.1307    0.0000 C   0  0  0  0  0  0  0  0  0  0  0  0
   14.9240   -2.8803    0.0000 C   0  0  0  0  0  0  0  0  0  0  0  0
   15.1166   -3.6538    0.0000 O   0  0  0  0  0  0  0  0  0  0  0  0
   13.6252   -2.1298    0.0000 N   0  0  0  0  0  0  0  0  0  0  0  0
   12.3259   -2.8794    0.0000 C   0  0  0  0  0  0  0  0  0  0  0  0
   13.2897   -4.0288    0.0000 C   0  0  0  0  0  0  0  0  0  0  0  0
   14.7670   -3.7688    0.0000 C   0  0  0  0  0  0  0  0  0  0  0  0
   15.7308   -4.9182    0.0000 N   0  0  0  0  0  0  0  0  0  0  0  0
   15.6063   -2.5256    0.0000 O   0  0  0  0  0  0  0  0  0  0  0  0
   10.8486   -3.1393    0.0000 C   0  0  0  0  0  0  0  0  0  0  0  0
   10.6914   -4.6311    0.0000 O   0  0  0  0  0  0  0  0  0  0  0  0
    9.8848   -1.9899    0.0000 N   0  0  0  0  0  0  0  0  0  0  0  0
    8.4075   -2.2499    0.0000 C   0  0  0  0  0  0  0  0  0  0  0  0
    8.9201   -3.6596    0.0000 C   0  0  0  0  0  0  0  0  0  0  0  0
   10.3972   -3.9206    0.0000 C   0  0  0  0  0  0  0  0  0  0  0  0
   10.9098   -5.3303    0.0000 C   0  0  0  0  0  0  0  0  0  0  0  0
   12.3441   -5.7694    0.0000 O   0  0  0  0  0  0  0  0  0  0  0  0
    9.9452   -6.4791    0.0000 O   0  0  0  0  0  0  0  0  0  0  0  0
    6.9304   -1.9889    0.0000 C   0  0  0  0  0  0  0  0  0  0  0  0
    6.2725   -3.3369    0.0000 O   0  0  0  0  0  0  0  0  0  0  0  0
    6.4179   -0.5792    0.0000 N   0  0  0  0  0  0  0  0  0  0  0  0
    4.9407   -0.3183    0.0000 C   0  0  0  0  0  0  0  0  0  0  0  0
    4.9402   -1.8183    0.0000 C   0  0  0  0  0  0  0  0  0  0  0  0
    6.2390   -2.5687    0.0000 C   0  0  0  0  0  0  0  0  0  0  0  0
    6.2385   -4.0687    0.0000 C   0  0  0  0  0  0  0  0  0  0  0  0
    7.7161   -2.8297    0.0000 C   0  0  0  0  0  0  0  0  0  0  0  0
    3.6420    0.4322    0.0000 C   0  0  0  0  0  0  0  0  0  0  0  0
    2.5627   -0.6095    0.0000 O   0  0  0  0  0  0  0  0  0  0  0  0
    3.6425    1.9322    0.0000 N   0  0  0  0  0  0  0  0  0  0  0  0
    2.3437    2.6826    0.0000 C   0  0  0  0  0  0  0  0  0  0  0  0
    2.2480    1.1857    0.0000 C   0  0  0  0  0  0  0  0  0  0  0  0
    1.8708   -0.2661    0.0000 C   0  0  0  0  0  0  0  0  0  0  0  0
    1.2257   -1.6203    0.0000 C   0  0  0  0  0  0  0  0  0  0  0  0
    0.3359   -2.8279    0.0000 C   0  0  0  0  0  0  0  0  0  0  0  0
   -0.7663   -3.8453    0.0000 C   0  0  0  0  0  0  0  0  0  0  0  0
   -2.0412   -4.6357    0.0000 C   0  0  0  0  0  0  0  0  0  0  0  0
   -3.4426   -5.1705    0.0000 C   0  0  0  0  0  0  0  0  0  0  0  0
    3.5928    3.5131    0.0000 C   0  0  0  0  0  0  0  0  0  0  0  0
    2.1543    4.1706    0.0000 C   0  0  0  0  0  0  0  0  0  0  0  0
    3.5664    4.6765    0.0000 O   0  0  0  0  0  0  0  0  0  0  0  0
    1.6867    5.5959    0.0000 N   0  0  0  0  0  0  0  0  0  0  0  0
    0.9579    6.9069    0.0000 C   0  0  0  0  0  0  0  0  0  0  0  0
    1.5598    8.2809    0.0000 C   0  0  0  0  0  0  0  0  0  0  0  0
    3.0506    8.4466    0.0000 C   0  0  0  0  0  0  0  0  0  0  0  0
    3.6524    9.8206    0.0000 C   0  0  0  0  0  0  0  0  0  0  0  0
    5.1432    9.9863    0.0000 N   0  0  0  0  0  0  0  0  0  0  0  0
    5.7451   11.3603    0.0000 C   0  0  0  0  0  0  0  0  0  0  0  0
    7.2359   11.5260    0.0000 N   0  0  0  0  0  0  0  0  0  0  0  0
    4.8562   12.5685    0.0000 N   0  0  0  0  0  0  0  0  0  0  0  0
   -0.0059    8.0563    0.0000 C   0  0  0  0  0  0  0  0  0  0  0  0
    0.9086    9.2453    0.0000 O   0  0  0  0  0  0  0  0  0  0  0  0
   -1.1698    9.0025    0.0000 N   0  0  0  0  0  0  0  0  0  0  0  0
   -2.4917    9.7114    0.0000 C   0  0  0  0  0  0  0  0  0  0  0  0
   -2.7282   11.1926    0.0000 C   0  0  0  0  0  0  0  0  0  0  0  0
   -1.5637   12.1381    0.0000 O   0  0  0  0  0  0  0  0  0  0  0  0
   -3.9239   10.1573    0.0000 C   0  0  0  0  0  0  0  0  0  0  0  0
   -3.7975   11.6519    0.0000 O   0  0  0  0  0  0  0  0  0  0  0  0
   -5.4146   10.3240    0.0000 N   0  0  0  0  0  0  0  0  0  0  0  0
   -6.9100   10.2057    0.0000 C   0  0  0  0  0  0  0  0  0  0  0  0
   -7.9097   11.3239    0.0000 C   0  0  0  0  0  0  0  0  0  0  0  0
   -7.4412   12.7488    0.0000 C   0  0  0  0  0  0  0  0  0  0  0  0
   -5.9729   13.0555    0.0000 C   0  0  0  0  0  0  0  0  0  0  0  0
   -5.5044   14.4805    0.0000 C   0  0  0  0  0  0  0  0  0  0  0  0
   -6.5041   15.5987    0.0000 C   0  0  0  0  0  0  0  0  0  0  0  0
   -7.9724   15.2920    0.0000 C   0  0  0  0  0  0  0  0  0  0  0  0
   -8.4410   13.8671    0.0000 C   0  0  0  0  0  0  0  0  0  0  0  0
   -8.3559    9.8064    0.0000 C   0  0  0  0  0  0  0  0  0  0  0  0
   -9.0575   11.1322    0.0000 O   0  0  0  0  0  0  0  0  0  0  0  0
   -9.7001    9.1408    0.0000 N   0  0  0  0  0  0  0  0  0  0  0  0
  -10.8940    8.2328    0.0000 C   0  0  0  0  0  0  0  0  0  0  0  0
  -12.3397    8.6330    0.0000 C   0  0  0  0  0  0  0  0  0  0  0  0
  -12.7159   10.0850    0.0000 C   0  0  0  0  0  0  0  0  0  0  0  0
  -14.1615   10.4852    0.0000 C   0  0  0  0  0  0  0  0  0  0  0  0
  -14.5377   11.9373    0.0000 N   0  0  0  0  0  0  0  0  0  0  0  0
  -15.9834   12.3375    0.0000 C   0  0  0  0  0  0  0  0  0  0  0  0
  -16.3596   13.7895    0.0000 N   0  0  0  0  0  0  0  0  0  0  0  0
  -17.0528   11.2856    0.0000 N   0  0  0  0  0  0  0  0  0  0  0  0
  -11.8946    7.1152    0.0000 C   0  0  0  0  0  0  0  0  0  0  0  0
  -13.2016    7.8512    0.0000 O   0  0  0  0  0  0  0  0  0  0  0  0
  -12.6655    5.8285    0.0000 N   0  0  0  0  0  0  0  0  0  0  0  0
  -13.1790    4.4191    0.0000 C   0  0  0  0  0  0  0  0  0  0  0  0
  -14.6115    3.9743    0.0000 C   0  0  0  0  0  0  0  0  0  0  0  0
  -13.4165    2.9381    0.0000 C   0  0  0  0  0  0  0  0  0  0  0  0
  -14.9140    2.8505    0.0000 O   0  0  0  0  0  0  0  0  0  0  0  0
  -13.3694    1.4388    0.0000 N   0  0  0  0  0  0  0  0  0  0  0  0
  -13.0395   -0.0244    0.0000 C   0  0  0  0  0  0  0  0  0  0  0  0
  -14.0041   -1.1732    0.0000 C   0  0  0  0  0  0  0  0  0  0  0  0
  -15.4812   -0.9122    0.0000 C   0  0  0  0  0  0  0  0  0  0  0  0
  -16.4457   -2.0609    0.0000 C   0  0  0  0  0  0  0  0  0  0  0  0
  -16.7800   -0.1618    0.0000 C   0  0  0  0  0  0  0  0  0  0  0  0
  -12.4386   -1.3988    0.0000 C   0  0  0  0  0  0  0  0  0  0  0  0
  -13.6510   -2.2820    0.0000 O   0  0  0  0  0  0  0  0  0  0  0  0
  -11.5884   -2.6346    0.0000 N   0  0  0  0  0  0  0  0  0  0  0  0
  -10.5197   -3.6872    0.0000 C   0  0  0  0  0  0  0  0  0  0  0  0
   -9.2711   -4.5185    0.0000 C   0  0  0  0  0  0  0  0  0  0  0  0
   -7.8878   -5.0985    0.0000 C   0  0  0  0  0  0  0  0  0  0  0  0
   -6.4197   -5.4062    0.0000 C   0  0  0  0  0  0  0  0  0  0  0  0
   -4.9199   -5.4305    0.0000 C   0  0  0  0  0  0  0  0  0  0  0  0
  -11.9374   -4.1773    0.0000 C   0  0  0  0  0  0  0  0  0  0  0  0
  -10.7101   -5.1751    0.0000 C   0  0  0  0  0  0  0  0  0  0  0  0
   -9.7721   -6.3456    0.0000 O   0  0  0  0  0  0  0  0  0  0  0  0
  -12.0938   -5.7541    0.0000 N   0  0  0  0  0  0  0  0  0  0  0  0
  -12.2842   -7.2420    0.0000 C   0  0  0  0  0  0  0  0  0  0  0  0
  -11.9542   -8.7052    0.0000 C   0  0  0  0  0  0  0  0  0  0  0  0
  -13.0565   -9.7226    0.0000 C   0  0  0  0  0  0  0  0  0  0  0  0
  -12.7265  -11.1859    0.0000 O   0  0  0  0  0  0  0  0  0  0  0  0
  -14.5540   -9.6366    0.0000 O   0  0  0  0  0  0  0  0  0  0  0  0
  -13.6679   -7.8210    0.0000 C   0  0  0  0  0  0  0  0  0  0  0  0
  -14.8613   -6.9122    0.0000 O   0  0  0  0  0  0  0  0  0  0  0  0
  -13.8583   -9.3089    0.0000 N   0  0  0  0  0  0  0  0  0  0  0  0
  -15.2421   -9.8879    0.0000 C   0  0  0  0  0  0  0  0  0  0  0  0
  -16.7404   -9.9588    0.0000 C   0  0  0  0  0  0  0  0  0  0  0  0
  -17.8603  -10.9567    0.0000 O   0  0  0  0  0  0  0  0  0  0  0  0
  -15.4325  -11.3758    0.0000 C   0  0  0  0  0  0  0  0  0  0  0  0
  -14.2391  -12.2846    0.0000 O   0  0  0  0  0  0  0  0  0  0  0  0
  -16.8162  -11.9549    0.0000 N   0  0  0  0  0  0  0  0  0  0  0  0
  -17.0066  -13.4427    0.0000 C   0  0  0  0  0  0  0  0  0  0  0  0
  -16.6766  -14.9060    0.0000 C   0  0  0  0  0  0  0  0  0  0  0  0
  -17.7789  -15.9234    0.0000 C   0  0  0  0  0  0  0  0  0  0  0  0
  -15.8661  -16.1681    0.0000 C   0  0  0  0  0  0  0  0  0  0  0  0
  -14.3678  -16.0973    0.0000 C   0  0  0  0  0  0  0  0  0  0  0  0
  -18.3903  -14.0218    0.0000 C   0  0  0  0  0  0  0  0  0  0  0  0
  -18.7607  -15.4753    0.0000 O   0  0  0  0  0  0  0  0  0  0  0  0
  -19.5836  -13.1129    0.0000 O   0  0  0  0  0  0  0  0  0  0  0  0
   21.2371   -0.6436    0.0000 H   0  0  0  0  0  0  0  0  0  0  0  0
   21.4184   -5.1325    0.0000 H   0  0  0  0  0  0  0  0  0  0  0  0
   24.0160   -6.6333    0.0000 H   0  0  0  0  0  0  0  0  0  0  0  0
   23.6551   -0.6778    0.0000 H   0  0  0  0  0  0  0  0  0  0  0  0
   30.6057    1.0548    0.0000 H   0  0  0  0  0  0  0  0  0  0  0  0
   31.6843   -4.0281    0.0000 H   0  0  0  0  0  0  0  0  0  0  0  0
   28.7497   -4.6509    0.0000 H   0  0  0  0  0  0  0  0  0  0  0  0
   33.6157   -2.2903    0.0000 H   0  0  0  0  0  0  0  0  0  0  0  0
   23.8084   -3.0435    0.0000 H   0  0  0  0  0  0  0  0  0  0  0  0
   21.7748   -0.6322    0.0000 H   0  0  0  0  0  0  0  0  0  0  0  0
   25.6644    2.6622    0.0000 H   0  0  0  0  0  0  0  0  0  0  0  0
   23.1938    3.4659    0.0000 H   0  0  0  0  0  0  0  0  0  0  0  0
   18.8219   -0.6316    0.0000 H   0  0  0  0  0  0  0  0  0  0  0  0
   18.4859   -4.0305    0.0000 H   0  0  0  0  0  0  0  0  0  0  0  0
   16.7047   -4.1389    0.0000 H   0  0  0  0  0  0  0  0  0  0  0  0
   17.1879   -0.9820    0.0000 H   0  0  0  0  0  0  0  0  0  0  0  0
   15.2595   -0.9813    0.0000 H   0  0  0  0  0  0  0  0  0  0  0  0
   13.6257   -0.6298    0.0000 H   0  0  0  0  0  0  0  0  0  0  0  0
   11.8134   -1.4697    0.0000 H   0  0  0  0  0  0  0  0  0  0  0  0
   13.8023   -5.4385    0.0000 H   0  0  0  0  0  0  0  0  0  0  0  0
   12.0915   -4.9311    0.0000 H   0  0  0  0  0  0  0  0  0  0  0  0
   17.2288   -4.8402    0.0000 H   0  0  0  0  0  0  0  0  0  0  0  0
   15.2173   -6.3276    0.0000 H   0  0  0  0  0  0  0  0  0  0  0  0
   10.3984   -0.5806    0.0000 H   0  0  0  0  0  0  0  0  0  0  0  0
    8.5909   -0.7612    0.0000 H   0  0  0  0  0  0  0  0  0  0  0  0
    8.9196   -5.1596    0.0000 H   0  0  0  0  0  0  0  0  0  0  0  0
    7.5496   -4.2693    0.0000 H   0  0  0  0  0  0  0  0  0  0  0  0
   11.8745   -3.6606    0.0000 H   0  0  0  0  0  0  0  0  0  0  0  0
   10.7607   -2.4653    0.0000 H   0  0  0  0  0  0  0  0  0  0  0  0
    7.3824    0.5695    0.0000 H   0  0  0  0  0  0  0  0  0  0  0  0
    5.4543    1.0911    0.0000 H   0  0  0  0  0  0  0  0  0  0  0  0
    4.2588   -3.1545    0.0000 H   0  0  0  0  0  0  0  0  0  0  0  0
    3.4631   -1.5573    0.0000 H   0  0  0  0  0  0  0  0  0  0  0  0
    7.0783   -1.3255    0.0000 H   0  0  0  0  0  0  0  0  0  0  0  0
    7.3171   -5.1111    0.0000 H   0  0  0  0  0  0  0  0  0  0  0  0
    5.7250   -5.4781    0.0000 H   0  0  0  0  0  0  0  0  0  0  0  0
    4.7406   -3.9897    0.0000 H   0  0  0  0  0  0  0  0  0  0  0  0
    8.2287   -4.2394    0.0000 H   0  0  0  0  0  0  0  0  0  0  0  0
    9.2124   -2.9349    0.0000 H   0  0  0  0  0  0  0  0  0  0  0  0
    7.5338   -1.3408    0.0000 H   0  0  0  0  0  0  0  0  0  0  0  0
    5.0234    2.5178    0.0000 H   0  0  0  0  0  0  0  0  0  0  0  0
    3.7308    1.4127    0.0000 H   0  0  0  0  0  0  0  0  0  0  0  0
    3.2531    0.0722    0.0000 H   0  0  0  0  0  0  0  0  0  0  0  0
    3.3515   -0.5061    0.0000 H   0  0  0  0  0  0  0  0  0  0  0  0
    2.7977   -1.4455    0.0000 H   0  0  0  0  0  0  0  0  0  0  0  0
    2.7255   -1.5970    0.0000 H   0  0  0  0  0  0  0  0  0  0  0  0
    2.0700   -2.8601    0.0000 H   0  0  0  0  0  0  0  0  0  0  0  0
    1.7702   -3.2670    0.0000 H   0  0  0  0  0  0  0  0  0  0  0  0
    0.9303   -4.2051    0.0000 H   0  0  0  0  0  0  0  0  0  0  0  0
    0.5589   -4.5479    0.0000 H   0  0  0  0  0  0  0  0  0  0  0  0
   -0.4433   -5.3101    0.0000 H   0  0  0  0  0  0  0  0  0  0  0  0
   -0.8728   -5.5764    0.0000 H   0  0  0  0  0  0  0  0  0  0  0  0
   -2.1843   -6.1288    0.0000 H   0  0  0  0  0  0  0  0  0  0  0  0
   -3.0434   -6.6164    0.0000 H   0  0  0  0  0  0  0  0  0  0  0  0
    5.0078    3.0153    0.0000 H   0  0  0  0  0  0  0  0  0  0  0  0
    4.6232    4.6032    0.0000 H   0  0  0  0  0  0  0  0  0  0  0  0
    2.8516    4.8171    0.0000 H   0  0  0  0  0  0  0  0  0  0  0  0
    3.1241    6.0248    0.0000 H   0  0  0  0  0  0  0  0  0  0  0  0
    2.4537    6.7946    0.0000 H   0  0  0  0  0  0  0  0  0  0  0  0
    1.6554    9.7778    0.0000 H   0  0  0  0  0  0  0  0  0  0  0  0
    0.2312    8.9772    0.0000 H   0  0  0  0  0  0  0  0  0  0  0  0
    4.5082    8.0925    0.0000 H   0  0  0  0  0  0  0  0  0  0  0  0
    3.3200    6.9710    0.0000 H   0  0  0  0  0  0  0  0  0  0  0  0
    3.7481   11.3175    0.0000 H   0  0  0  0  0  0  0  0  0  0  0  0
    2.2489   10.3497    0.0000 H   0  0  0  0  0  0  0  0  0  0  0  0
    6.0322    8.7781    0.0000 H   0  0  0  0  0  0  0  0  0  0  0  0
    7.8378   12.9000    0.0000 H   0  0  0  0  0  0  0  0  0  0  0  0
    8.1249   10.3178    0.0000 H   0  0  0  0  0  0  0  0  0  0  0  0
    5.4580   13.9425    0.0000 H   0  0  0  0  0  0  0  0  0  0  0  0
    3.3653   12.4027    0.0000 H   0  0  0  0  0  0  0  0  0  0  0  0
   -0.3385   10.2511    0.0000 H   0  0  0  0  0  0  0  0  0  0  0  0
   -1.2696   10.5811    0.0000 H   0  0  0  0  0  0  0  0  0  0  0  0
   -3.2918   12.5827    0.0000 H   0  0  0  0  0  0  0  0  0  0  0  0
   -4.2224   11.0601    0.0000 H   0  0  0  0  0  0  0  0  0  0  0  0
   -1.8002   13.6193    0.0000 H   0  0  0  0  0  0  0  0  0  0  0  0
   -5.2077   11.8097    0.0000 H   0  0  0  0  0  0  0  0  0  0  0  0
   -6.3520   11.5980    0.0000 H   0  0  0  0  0  0  0  0  0  0  0  0
   -9.1354   12.1886    0.0000 H   0  0  0  0  0  0  0  0  0  0  0  0
   -9.0950   10.4046    0.0000 H   0  0  0  0  0  0  0  0  0  0  0  0
   -4.8443   12.0675    0.0000 H   0  0  0  0  0  0  0  0  0  0  0  0
   -4.0360   14.7872    0.0000 H   0  0  0  0  0  0  0  0  0  0  0  0
   -6.0356   17.0237    0.0000 H   0  0  0  0  0  0  0  0  0  0  0  0
   -8.9722   16.4103    0.0000 H   0  0  0  0  0  0  0  0  0  0  0  0
   -9.9093   13.5604    0.0000 H   0  0  0  0  0  0  0  0  0  0  0  0
  -10.3292   10.5025    0.0000 H   0  0  0  0  0  0  0  0  0  0  0  0
  -10.9957    9.7293    0.0000 H   0  0  0  0  0  0  0  0  0  0  0  0
  -13.8350    8.5146    0.0000 H   0  0  0  0  0  0  0  0  0  0  0  0
  -12.8398    7.2188    0.0000 H   0  0  0  0  0  0  0  0  0  0  0  0
  -12.5728   11.5782    0.0000 H   0  0  0  0  0  0  0  0  0  0  0  0
  -11.2936   10.5617    0.0000 H   0  0  0  0  0  0  0  0  0  0  0  0
  -15.6568   10.3669    0.0000 H   0  0  0  0  0  0  0  0  0  0  0  0
  -14.4855    9.0207    0.0000 H   0  0  0  0  0  0  0  0  0  0  0  0
  -13.4683   12.9891    0.0000 H   0  0  0  0  0  0  0  0  0  0  0  0
  -17.8052   14.1897    0.0000 H   0  0  0  0  0  0  0  0  0  0  0  0
  -15.2902   14.8414    0.0000 H   0  0  0  0  0  0  0  0  0  0  0  0
  -18.4984   11.6858    0.0000 H   0  0  0  0  0  0  0  0  0  0  0  0
  -16.6765    9.8336    0.0000 H   0  0  0  0  0  0  0  0  0  0  0  0
  -14.0197    6.4737    0.0000 H   0  0  0  0  0  0  0  0  0  0  0  0
  -14.2138    5.5051    0.0000 H   0  0  0  0  0  0  0  0  0  0  0  0
  -15.7131    4.9924    0.0000 H   0  0  0  0  0  0  0  0  0  0  0  0
  -15.9073    3.2186    0.0000 H   0  0  0  0  0  0  0  0  0  0  0  0
  -14.2677    2.5142    0.0000 H   0  0  0  0  0  0  0  0  0  0  0  0
  -14.8694    1.4322    0.0000 H   0  0  0  0  0  0  0  0  0  0  0  0
  -14.4430    0.5047    0.0000 H   0  0  0  0  0  0  0  0  0  0  0  0
  -14.5176   -2.5825    0.0000 H   0  0  0  0  0  0  0  0  0  0  0  0
  -12.9255   -2.2156    0.0000 H   0  0  0  0  0  0  0  0  0  0  0  0
  -15.3240    0.5795    0.0000 H   0  0  0  0  0  0  0  0  0  0  0  0
  -17.9437   -1.9820    0.0000 H   0  0  0  0  0  0  0  0  0  0  0  0
  -16.9593   -3.4703    0.0000 H   0  0  0  0  0  0  0  0  0  0  0  0
  -15.2481   -2.9641    0.0000 H   0  0  0  0  0  0  0  0  0  0  0  0
  -18.1609   -0.7474    0.0000 H   0  0  0  0  0  0  0  0  0  0  0  0
  -17.7437    0.9876    0.0000 H   0  0  0  0  0  0  0  0  0  0  0  0
  -15.8154    0.9870    0.0000 H   0  0  0  0  0  0  0  0  0  0  0  0
  -12.8467   -3.4511    0.0000 H   0  0  0  0  0  0  0  0  0  0  0  0
   -9.1765   -6.0155    0.0000 H   0  0  0  0  0  0  0  0  0  0  0  0
  -10.3504   -5.5602    0.0000 H   0  0  0  0  0  0  0  0  0  0  0  0
   -7.6914   -6.5856    0.0000 H   0  0  0  0  0  0  0  0  0  0  0  0
   -8.7505   -6.3256    0.0000 H   0  0  0  0  0  0  0  0  0  0  0  0
   -5.7755   -6.7608    0.0000 H   0  0  0  0  0  0  0  0  0  0  0  0
   -7.1967   -6.6892    0.0000 H   0  0  0  0  0  0  0  0  0  0  0  0
   -4.8015   -6.9258    0.0000 H   0  0  0  0  0  0  0  0  0  0  0  0
  -12.5697   -5.5375    0.0000 H   0  0  0  0  0  0  0  0  0  0  0  0
  -13.4372   -4.1530    0.0000 H   0  0  0  0  0  0  0  0  0  0  0  0
  -12.5253   -2.7973    0.0000 H   0  0  0  0  0  0  0  0  0  0  0  0
  -13.3890   -4.9975    0.0000 H   0  0  0  0  0  0  0  0  0  0  0  0
  -10.7859   -7.1711    0.0000 H   0  0  0  0  0  0  0  0  0  0  0  0
  -11.1437   -9.9674    0.0000 H   0  0  0  0  0  0  0  0  0  0  0  0
  -10.5705   -8.1262    0.0000 H   0  0  0  0  0  0  0  0  0  0  0  0
  -12.9204  -10.4795    0.0000 H   0  0  0  0  0  0  0  0  0  0  0  0
  -15.5720   -8.4247    0.0000 H   0  0  0  0  0  0  0  0  0  0  0  0
  -18.1726   -9.5129    0.0000 H   0  0  0  0  0  0  0  0  0  0  0  0
  -16.5500   -8.4709    0.0000 H   0  0  0  0  0  0  0  0  0  0  0  0
  -18.9265  -11.3627    0.0000 H   0  0  0  0  0  0  0  0  0  0  0  0
  -18.1114  -11.1983    0.0000 H   0  0  0  0  0  0  0  0  0  0  0  0
  -15.5083  -13.3719    0.0000 H   0  0  0  0  0  0  0  0  0  0  0  0
  -15.3738  -14.1626    0.0000 H   0  0  0  0  0  0  0  0  0  0  0  0
  -17.6297  -17.4159    0.0000 H   0  0  0  0  0  0  0  0  0  0  0  0
  -19.1626  -16.5024    0.0000 H   0  0  0  0  0  0  0  0  0  0  0  0
  -18.9879  -15.0356    0.0000 H   0  0  0  0  0  0  0  0  0  0  0  0
  -15.5361  -17.6314    0.0000 H   0  0  0  0  0  0  0  0  0  0  0  0
  -17.1689  -16.9115    0.0000 H   0  0  0  0  0  0  0  0  0  0  0  0
  -13.5572  -17.3594    0.0000 H   0  0  0  0  0  0  0  0  0  0  0  0
  -12.9840  -15.5182    0.0000 H   0  0  0  0  0  0  0  0  0  0  0  0
  -14.5169  -14.6047    0.0000 H   0  0  0  0  0  0  0  0  0  0  0  0
  1  2  1  0
  2  3  1  0
  3  4  2  0
  4  5  1  0
  5  6  2  0
  6  7  1  0
  7  8  2  0
  7  9  1  0
  9 10  1  0
 10 11  1  0
 11 12  2  0
  9 13  1  0
 13 14  1  0
 14 15  2  0
 15 16  1  0
 16 17  2  0
 17 18  1  0
 16 19  1  0
 14 20  1  0
 20 21  1  0
 21 22  2  0
 22 23  1  0
 23 24  2  0
 24 25  1  0
 25 26  2  0
 25 27  1  0
  1 28  2  0
  1 29  1  0
 29 30  1  0
 30 31  1  0
 31 32  1  0
 32 33  2  0
 32 34  1  0
 34 35  1  0
 35 36  1  0
 36 37  1  0
 37 38  1  0
 37 39  2  0
 35 40  1  0
 40 41  2  0
 40 42  1  0
 42 43  1  0
 43 44  1  0
 44 45  1  0
 45 46  1  0
 46 47  2  0
 46 48  1  0
 43 49  1  0
 49 50  2  0
 49 51  1  0
 51 52  1  0
 52 53  1  0
 53 54  1  0
 54 55  1  0
 54 56  1  0
 52 57  1  0
 57 58  2  0
 57 59  1  0
 60 59  1  6
 60 61  1  0
 61 62  1  0
 62 63  1  0
 63 64  1  0
 64 65  1  0
 65 66  1  0
 66 67  1  0
 60 68  1  0
 60 69  1  0
 69 70  2  0
 69 71  1  0
 71 72  1  0
 72 73  1  0
 73 74  1  0
 74 75  1  0
 75 76  1  0
 76 77  1  0
 77 78  2  3
 77 79  1  0
 72 80  1  0
 80 81  2  0
 80 82  1  0
 82 83  1  0
 83 84  1  0
 84 85  1  0
 83 86  1  0
 86 87  2  0
 86 88  1  0
 88 89  1  0
 89 90  1  0
 90 91  1  0
 91 92  2  0
 92 93  1  0
 93 94  2  0
 94 95  1  0
 95 96  2  0
 89 97  1  0
 97 98  2  0
 97 99  1  0
 99100  1  0
100101  1  0
101102  1  0
102103  1  0
103104  1  0
104105  1  0
105106  2  3
105107  1  0
100108  1  0
108109  2  0
108110  1  0
110111  1  0
111112  1  0
111113  1  0
113114  2  0
113115  1  0
115116  1  0
116117  1  0
117118  1  0
118119  1  0
118120  1  0
116121  1  0
121122  2  0
121123  1  0
123124  1  0
124125  1  0
125126  1  0
126127  1  0
127128  1  0
124129  1  0
124130  1  1
130131  2  0
130132  1  0
132133  1  0
133134  1  0
134135  1  0
135136  2  0
135137  1  0
133138  1  0
138139  2  0
138140  1  0
140141  1  0
141142  1  0
142143  1  0
141144  1  0
144145  2  0
144146  1  0
146147  1  0
147148  1  0
148149  1  0
148150  1  0
150151  1  0
147152  1  0
152153  2  0
152154  1  0
  8  3  1  0
 96 91  1  0
 11  6  1  0
 18 13  2  0
 67128  2  0
 22  9  1  0
 26 21  1  0
  2155  1  0
  4156  1  0
  5157  1  0
  8158  1  0
 15159  1  0
 17160  1  0
 18161  1  0
 19162  1  0
 23163  1  0
 24164  1  0
 26165  1  0
 27166  1  0
 29167  1  0
 30168  1  0
 30169  1  0
 31170  1  0
 31171  1  0
 34172  1  0
 35173  1  1
 36174  1  0
 36175  1  0
 38176  1  0
 38177  1  0
 42178  1  0
 43179  1  1
 44180  1  0
 44181  1  0
 45182  1  0
 45183  1  0
 51184  1  0
 52185  1  1
 53186  1  0
 53187  1  0
 54188  1  0
 55189  1  0
 55190  1  0
 55191  1  0
 56192  1  0
 56193  1  0
 56194  1  0
 59195  1  0
 61196  1  0
 61197  1  0
 62198  1  0
 62199  1  0
 63200  1  0
 63201  1  0
 64202  1  0
 64203  1  0
 65204  1  0
 65205  1  0
 66206  1  0
 66207  1  0
 67208  1  0
 68209  1  0
 68210  1  0
 68211  1  0
 71212  1  0
 72213  1  6
 73214  1  0
 73215  1  0
 74216  1  0
 74217  1  0
 75218  1  0
 75219  1  0
 76220  1  0
 78221  1  0
 78222  1  0
 79223  1  0
 79224  1  0
 82225  1  0
 83226  1  6
 84227  1  0
 84228  1  0
 85229  1  0
 88230  1  0
 89231  1  6
 90232  1  0
 90233  1  0
 92234  1  0
 93235  1  0
 94236  1  0
 95237  1  0
 96238  1  0
 99239  1  0
100240  1  6
101241  1  0
101242  1  0
102243  1  0
102244  1  0
103245  1  0
103246  1  0
104247  1  0
106248  1  0
106249  1  0
107250  1  0
107251  1  0
110252  1  0
111253  1  6
112254  1  0
112255  1  0
112256  1  0
115257  1  0
116258  1  6
117259  1  0
117260  1  0
118261  1  0
119262  1  0
119263  1  0
119264  1  0
120265  1  0
120266  1  0
120267  1  0
123268  1  0
125269  1  0
125270  1  0
126271  1  0
126272  1  0
127273  1  0
127274  1  0
128275  1  0
129276  1  0
129277  1  0
129278  1  0
132279  1  0
133280  1  1
134281  1  0
134282  1  0
140283  1  0
141284  1  6
142285  1  0
142286  1  0
143287  1  0
146288  1  0
147289  1  1
148290  1  1
149291  1  0
149292  1  0
149293  1  0
150294  1  0
150295  1  0
151296  1  0
151297  1  0
151298  1  0
M  CHG  5  48  -1  78   1 106   1 137  -1 154  -1
M  END
