
     RDKit          2D

346355  0  0  0  0  0  0  0  0999 V2000
   23.9469   -2.0849    0.0000 C   0  0  0  0  0  0  0  0  0  0  0  0
   25.2523   -1.3460    0.0000 N   0  0  0  0  0  0  0  0  0  0  0  0
   26.5449   -2.1071    0.0000 C   0  0  0  0  0  0  0  0  0  0  0  0
   26.5320   -3.6070    0.0000 C   0  0  0  0  0  0  0  0  0  0  0  0
   27.8246   -4.3681    0.0000 C   0  0  0  0  0  0  0  0  0  0  0  0
   29.1300   -3.6292    0.0000 C   0  0  0  0  0  0  0  0  0  0  0  0
   29.1428   -2.1293    0.0000 C   0  0  0  0  0  0  0  0  0  0  0  0
   27.8503   -1.3682    0.0000 C   0  0  0  0  0  0  0  0  0  0  0  0
   30.5733   -1.6780    0.0000 C   0  0  0  0  0  0  0  0  0  0  0  0
   31.4446   -2.8990    0.0000 O   0  0  0  0  0  0  0  0  0  0  0  0
   30.5526   -4.1049    0.0000 C   0  0  0  0  0  0  0  0  0  0  0  0
   31.0039   -5.5354    0.0000 O   0  0  0  0  0  0  0  0  0  0  0  0
   32.0432   -1.3786    0.0000 C   0  0  0  0  0  0  0  0  0  0  0  0
   32.5189    0.0439    0.0000 C   0  0  0  0  0  0  0  0  0  0  0  0
   33.9887    0.3432    0.0000 C   0  0  0  0  0  0  0  0  0  0  0  0
   34.9828   -0.7800    0.0000 C   0  0  0  0  0  0  0  0  0  0  0  0
   34.5071   -2.2026    0.0000 C   0  0  0  0  0  0  0  0  0  0  0  0
   33.0373   -2.5019    0.0000 C   0  0  0  0  0  0  0  0  0  0  0  0
   36.4527   -0.4807    0.0000 O   0  0  0  0  0  0  0  0  0  0  0  0
   31.5247    1.1672    0.0000 O   0  0  0  0  0  0  0  0  0  0  0  0
   30.0549    0.8679    0.0000 C   0  0  0  0  0  0  0  0  0  0  0  0
   29.5792   -0.5547    0.0000 C   0  0  0  0  0  0  0  0  0  0  0  0
   28.3314   -0.1902    0.0000 C   0  0  0  0  0  0  0  0  0  0  0  0
   27.8011    0.4089    0.0000 C   0  0  0  0  0  0  0  0  0  0  0  0
   28.0548    1.1676    0.0000 C   0  0  0  0  0  0  0  0  0  0  0  0
   28.8388    1.3272    0.0000 C   0  0  0  0  0  0  0  0  0  0  0  0
   26.5968    2.8150    0.0000 O   0  0  0  0  0  0  0  0  0  0  0  0
   23.9341   -3.5849    0.0000 S   0  0  0  0  0  0  0  0  0  0  0  0
   22.6543   -1.3238    0.0000 N   0  0  0  0  0  0  0  0  0  0  0  0
   21.3489   -2.0627    0.0000 C   0  0  0  0  0  0  0  0  0  0  0  0
   20.0563   -1.3016    0.0000 C   0  0  0  0  0  0  0  0  0  0  0  0
   18.7509   -2.0405    0.0000 C   0  0  0  0  0  0  0  0  0  0  0  0
   18.9372   -2.8156    0.0000 O   0  0  0  0  0  0  0  0  0  0  0  0
   17.4583   -1.2795    0.0000 N   0  0  0  0  0  0  0  0  0  0  0  0
   16.1529   -2.0183    0.0000 C   0  0  0  0  0  0  0  0  0  0  0  0
   17.1073   -3.1756    0.0000 C   0  0  0  0  0  0  0  0  0  0  0  0
   18.5866   -2.9277    0.0000 C   0  0  0  0  0  0  0  0  0  0  0  0
   19.5410   -4.0850    0.0000 C   0  0  0  0  0  0  0  0  0  0  0  0
   19.8920   -2.1889    0.0000 C   0  0  0  0  0  0  0  0  0  0  0  0
   14.6735   -2.2662    0.0000 C   0  0  0  0  0  0  0  0  0  0  0  0
   14.3237   -3.7248    0.0000 O   0  0  0  0  0  0  0  0  0  0  0  0
   13.7192   -1.1089    0.0000 N   0  0  0  0  0  0  0  0  0  0  0  0
   12.2398   -1.3568    0.0000 C   0  0  0  0  0  0  0  0  0  0  0  0
   12.7408   -2.7706    0.0000 C   0  0  0  0  0  0  0  0  0  0  0  0
   14.1715   -3.2215    0.0000 O   0  0  0  0  0  0  0  0  0  0  0  0
   10.7649   -1.0837    0.0000 C   0  0  0  0  0  0  0  0  0  0  0  0
   10.0959   -2.4262    0.0000 O   0  0  0  0  0  0  0  0  0  0  0  0
   10.2639    0.3302    0.0000 N   0  0  0  0  0  0  0  0  0  0  0  0
    8.7890    0.6033    0.0000 C   0  0  0  0  0  0  0  0  0  0  0  0
    8.7762   -0.8967    0.0000 C   0  0  0  0  0  0  0  0  0  0  0  0
   10.0688   -1.6577    0.0000 C   0  0  0  0  0  0  0  0  0  0  0  0
   10.0560   -3.1577    0.0000 C   0  0  0  0  0  0  0  0  0  0  0  0
   11.2461   -4.0706    0.0000 N   0  0  0  0  0  0  0  0  0  0  0  0
    8.7506   -3.8966    0.0000 O   0  0  0  0  0  0  0  0  0  0  0  0
    7.4964    1.3643    0.0000 C   0  0  0  0  0  0  0  0  0  0  0  0
    6.5426    0.2067    0.0000 O   0  0  0  0  0  0  0  0  0  0  0  0
    7.5092    2.8643    0.0000 N   0  0  0  0  0  0  0  0  0  0  0  0
    6.2166    3.6254    0.0000 C   0  0  0  0  0  0  0  0  0  0  0  0
    6.0545    2.1341    0.0000 C   0  0  0  0  0  0  0  0  0  0  0  0
    5.4601    0.7570    0.0000 C   0  0  0  0  0  0  0  0  0  0  0  0
    4.4861   -0.3838    0.0000 C   0  0  0  0  0  0  0  0  0  0  0  0
    3.2192   -1.1869    0.0000 C   0  0  0  0  0  0  0  0  0  0  0  0
    7.4420    4.4905    0.0000 C   0  0  0  0  0  0  0  0  0  0  0  0
    5.9320    5.0981    0.0000 C   0  0  0  0  0  0  0  0  0  0  0  0
    7.3459    5.5991    0.0000 O   0  0  0  0  0  0  0  0  0  0  0  0
    5.2259    6.4215    0.0000 N   0  0  0  0  0  0  0  0  0  0  0  0
    4.1611    7.4780    0.0000 C   0  0  0  0  0  0  0  0  0  0  0  0
    4.2486    8.9754    0.0000 C   0  0  0  0  0  0  0  0  0  0  0  0
    3.8188   10.4125    0.0000 O   0  0  0  0  0  0  0  0  0  0  0  0
    5.5892    9.6483    0.0000 C   0  0  0  0  0  0  0  0  0  0  0  0
    2.8322    8.1737    0.0000 C   0  0  0  0  0  0  0  0  0  0  0  0
    3.3220    9.5915    0.0000 O   0  0  0  0  0  0  0  0  0  0  0  0
    1.3572    8.4468    0.0000 N   0  0  0  0  0  0  0  0  0  0  0  0
   -0.1327    8.2730    0.0000 C   0  0  0  0  0  0  0  0  0  0  0  0
   -1.2488    9.2751    0.0000 C   0  0  0  0  0  0  0  0  0  0  0  0
   -0.9391   10.7427    0.0000 C   0  0  0  0  0  0  0  0  0  0  0  0
    0.4869   11.2083    0.0000 C   0  0  0  0  0  0  0  0  0  0  0  0
    0.7966   12.6760    0.0000 C   0  0  0  0  0  0  0  0  0  0  0  0
   -0.3195   13.6781    0.0000 C   0  0  0  0  0  0  0  0  0  0  0  0
   -1.7454   13.2125    0.0000 C   0  0  0  0  0  0  0  0  0  0  0  0
   -2.0552   11.7448    0.0000 C   0  0  0  0  0  0  0  0  0  0  0  0
   -1.5051    7.6678    0.0000 C   0  0  0  0  0  0  0  0  0  0  0  0
   -2.3082    8.9347    0.0000 O   0  0  0  0  0  0  0  0  0  0  0  0
   -2.6383    6.6849    0.0000 N   0  0  0  0  0  0  0  0  0  0  0  0
   -3.4313    5.4117    0.0000 C   0  0  0  0  0  0  0  0  0  0  0  0
   -4.9107    5.1638    0.0000 C   0  0  0  0  0  0  0  0  0  0  0  0
   -5.7168    6.4288    0.0000 O   0  0  0  0  0  0  0  0  0  0  0  0
   -3.8139    3.9613    0.0000 C   0  0  0  0  0  0  0  0  0  0  0  0
   -5.1479    4.6471    0.0000 O   0  0  0  0  0  0  0  0  0  0  0  0
   -3.7519    2.4625    0.0000 N   0  0  0  0  0  0  0  0  0  0  0  0
   -3.2509    1.0487    0.0000 C   0  0  0  0  0  0  0  0  0  0  0  0
   -2.3555   -0.1547    0.0000 C   0  0  0  0  0  0  0  0  0  0  0  0
   -1.1451   -1.0407    0.0000 C   0  0  0  0  0  0  0  0  0  0  0  0
    0.2727   -1.5306    0.0000 C   0  0  0  0  0  0  0  0  0  0  0  0
    1.7718   -1.5808    0.0000 C   0  0  0  0  0  0  0  0  0  0  0  0
   -2.6738   -0.3359    0.0000 C   0  0  0  0  0  0  0  0  0  0  0  0
   -2.3692   -1.8046    0.0000 C   0  0  0  0  0  0  0  0  0  0  0  0
   -2.3480   -3.3045    0.0000 C   0  0  0  0  0  0  0  0  0  0  0  0
   -2.6110   -4.7812    0.0000 C   0  0  0  0  0  0  0  0  0  0  0  0
   -4.0796    2.2990    0.0000 C   0  0  0  0  0  0  0  0  0  0  0  0
   -2.9138    3.2428    0.0000 O   0  0  0  0  0  0  0  0  0  0  0  0
   -5.1300    3.3698    0.0000 N   0  0  0  0  0  0  0  0  0  0  0  0
   -6.3640    4.2226    0.0000 C   0  0  0  0  0  0  0  0  0  0  0  0
   -6.4328    5.7210    0.0000 C   0  0  0  0  0  0  0  0  0  0  0  0
   -7.7648    6.4107    0.0000 C   0  0  0  0  0  0  0  0  0  0  0  0
   -7.8336    7.9091    0.0000 C   0  0  0  0  0  0  0  0  0  0  0  0
   -9.1616    6.9574    0.0000 C   0  0  0  0  0  0  0  0  0  0  0  0
   -7.7371    4.8264    0.0000 C   0  0  0  0  0  0  0  0  0  0  0  0
   -7.8084    6.3247    0.0000 O   0  0  0  0  0  0  0  0  0  0  0  0
   -9.1997    5.1594    0.0000 N   0  0  0  0  0  0  0  0  0  0  0  0
  -10.6988    5.2096    0.0000 C   0  0  0  0  0  0  0  0  0  0  0  0
  -11.5668    6.4330    0.0000 C   0  0  0  0  0  0  0  0  0  0  0  0
  -10.9413    7.7963    0.0000 C   0  0  0  0  0  0  0  0  0  0  0  0
   -9.4707    8.0917    0.0000 C   0  0  0  0  0  0  0  0  0  0  0  0
   -9.2971    9.5816    0.0000 N   0  0  0  0  0  0  0  0  0  0  0  0
  -10.6604   10.2071    0.0000 C   0  0  0  0  0  0  0  0  0  0  0  0
  -11.1079   11.6388    0.0000 C   0  0  0  0  0  0  0  0  0  0  0  0
  -12.5715   11.9672    0.0000 C   0  0  0  0  0  0  0  0  0  0  0  0
  -13.5877   10.8638    0.0000 C   0  0  0  0  0  0  0  0  0  0  0  0
  -13.1402    9.4321    0.0000 C   0  0  0  0  0  0  0  0  0  0  0  0
  -11.6766    9.1037    0.0000 C   0  0  0  0  0  0  0  0  0  0  0  0
  -12.1804    4.9752    0.0000 C   0  0  0  0  0  0  0  0  0  0  0  0
  -12.7289    6.3713    0.0000 O   0  0  0  0  0  0  0  0  0  0  0  0
  -13.5908    4.4646    0.0000 N   0  0  0  0  0  0  0  0  0  0  0  0
  -14.8792    3.6963    0.0000 C   0  0  0  0  0  0  0  0  0  0  0  0
  -16.2707    4.2562    0.0000 C   0  0  0  0  0  0  0  0  0  0  0  0
  -16.4816    5.7413    0.0000 C   0  0  0  0  0  0  0  0  0  0  0  0
  -17.8732    6.3013    0.0000 C   0  0  0  0  0  0  0  0  0  0  0  0
  -18.0841    7.7864    0.0000 C   0  0  0  0  0  0  0  0  0  0  0  0
  -19.4757    8.3463    0.0000 N   0  0  0  0  0  0  0  0  0  0  0  0
  -15.9988    2.6981    0.0000 C   0  0  0  0  0  0  0  0  0  0  0  0
  -17.2150    3.5761    0.0000 O   0  0  0  0  0  0  0  0  0  0  0  0
  -16.9093    1.5061    0.0000 N   0  0  0  0  0  0  0  0  0  0  0  0
  -17.5777    0.1632    0.0000 C   0  0  0  0  0  0  0  0  0  0  0  0
  -19.0511   -0.1181    0.0000 C   0  0  0  0  0  0  0  0  0  0  0  0
  -20.0314    1.0173    0.0000 C   0  0  0  0  0  0  0  0  0  0  0  0
  -21.5048    0.7359    0.0000 C   0  0  0  0  0  0  0  0  0  0  0  0
  -20.5643    2.4194    0.0000 C   0  0  0  0  0  0  0  0  0  0  0  0
  -17.9799   -1.2818    0.0000 C   0  0  0  0  0  0  0  0  0  0  0  0
  -19.4778   -1.2008    0.0000 O   0  0  0  0  0  0  0  0  0  0  0  0
  -18.1014   -2.7769    0.0000 N   0  0  0  0  0  0  0  0  0  0  0  0
  -17.9378   -4.2680    0.0000 C   0  0  0  0  0  0  0  0  0  0  0  0
  -19.0252   -5.3012    0.0000 C   0  0  0  0  0  0  0  0  0  0  0  0
  -20.4637   -4.8761    0.0000 C   0  0  0  0  0  0  0  0  0  0  0  0
  -21.5511   -5.9093    0.0000 C   0  0  0  0  0  0  0  0  0  0  0  0
  -21.6700   -3.9846    0.0000 C   0  0  0  0  0  0  0  0  0  0  0  0
  -17.4949   -5.7011    0.0000 C   0  0  0  0  0  0  0  0  0  0  0  0
  -18.7988   -6.4427    0.0000 O   0  0  0  0  0  0  0  0  0  0  0  0
  -16.7888   -7.0245    0.0000 N   0  0  0  0  0  0  0  0  0  0  0  0
  -15.8450   -8.1904    0.0000 C   0  0  0  0  0  0  0  0  0  0  0  0
  -16.2012   -9.6475    0.0000 C   0  0  0  0  0  0  0  0  0  0  0  0
  -14.6976   -9.1565    0.0000 C   0  0  0  0  0  0  0  0  0  0  0  0
  -15.3936  -10.4853    0.0000 O   0  0  0  0  0  0  0  0  0  0  0  0
  -13.3881   -9.8881    0.0000 N   0  0  0  0  0  0  0  0  0  0  0  0
  -11.9638  -10.3586    0.0000 C   0  0  0  0  0  0  0  0  0  0  0  0
  -10.4762  -10.5511    0.0000 C   0  0  0  0  0  0  0  0  0  0  0  0
   -8.9791  -10.4586    0.0000 C   0  0  0  0  0  0  0  0  0  0  0  0
   -7.5265  -10.0844    0.0000 C   0  0  0  0  0  0  0  0  0  0  0  0
   -6.1710   -9.4421    0.0000 C   0  0  0  0  0  0  0  0  0  0  0  0
   -4.9615   -8.5548    0.0000 C   0  0  0  0  0  0  0  0  0  0  0  0
   -3.9418   -7.4547    0.0000 C   0  0  0  0  0  0  0  0  0  0  0  0
   -3.1488   -6.1815    0.0000 C   0  0  0  0  0  0  0  0  0  0  0  0
  -13.0179  -11.4259    0.0000 C   0  0  0  0  0  0  0  0  0  0  0  0
  -11.4757  -11.7770    0.0000 C   0  0  0  0  0  0  0  0  0  0  0  0
  -10.1163  -12.4112    0.0000 O   0  0  0  0  0  0  0  0  0  0  0  0
  -12.4599  -12.9089    0.0000 N   0  0  0  0  0  0  0  0  0  0  0  0
  -11.9718  -14.3273    0.0000 C   0  0  0  0  0  0  0  0  0  0  0  0
  -11.0280  -15.4931    0.0000 C   0  0  0  0  0  0  0  0  0  0  0  0
  -11.5658  -16.8934    0.0000 C   0  0  0  0  0  0  0  0  0  0  0  0
  -10.6220  -18.0593    0.0000 N   0  0  0  0  0  0  0  0  0  0  0  0
  -13.0077  -17.3067    0.0000 O   0  0  0  0  0  0  0  0  0  0  0  0
  -12.9561  -15.4592    0.0000 C   0  0  0  0  0  0  0  0  0  0  0  0
  -12.6445  -16.9265    0.0000 O   0  0  0  0  0  0  0  0  0  0  0  0
  -14.4285  -15.1727    0.0000 O   0  0  0  0  0  0  0  0  0  0  0  0
   25.0822    0.1443    0.0000 H   0  0  0  0  0  0  0  0  0  0  0  0
   25.2266   -4.3459    0.0000 H   0  0  0  0  0  0  0  0  0  0  0  0
   27.8118   -5.8681    0.0000 H   0  0  0  0  0  0  0  0  0  0  0  0
   27.4997    0.0902    0.0000 H   0  0  0  0  0  0  0  0  0  0  0  0
   34.4644    1.7658    0.0000 H   0  0  0  0  0  0  0  0  0  0  0  0
   35.5013   -3.3258    0.0000 H   0  0  0  0  0  0  0  0  0  0  0  0
   32.5616   -3.9245    0.0000 H   0  0  0  0  0  0  0  0  0  0  0  0
   37.4468   -1.6039    0.0000 H   0  0  0  0  0  0  0  0  0  0  0  0
   27.6337   -2.2766    0.0000 H   0  0  0  0  0  0  0  0  0  0  0  0
   25.6199    0.1513    0.0000 H   0  0  0  0  0  0  0  0  0  0  0  0
   29.5364    3.4137    0.0000 H   0  0  0  0  0  0  0  0  0  0  0  0
   27.0725    4.2376    0.0000 H   0  0  0  0  0  0  0  0  0  0  0  0
   22.6671    0.1761    0.0000 H   0  0  0  0  0  0  0  0  0  0  0  0
   22.3032   -3.2200    0.0000 H   0  0  0  0  0  0  0  0  0  0  0  0
   20.6799   -3.4053    0.0000 H   0  0  0  0  0  0  0  0  0  0  0  0
   20.8839   -0.0506    0.0000 H   0  0  0  0  0  0  0  0  0  0  0  0
   19.2502   -0.0367    0.0000 H   0  0  0  0  0  0  0  0  0  0  0  0
   17.4711    0.2205    0.0000 H   0  0  0  0  0  0  0  0  0  0  0  0
   15.6520   -0.6045    0.0000 H   0  0  0  0  0  0  0  0  0  0  0  0
   17.4322   -4.6400    0.0000 H   0  0  0  0  0  0  0  0  0  0  0  0
   15.8019   -3.9145    0.0000 H   0  0  0  0  0  0  0  0  0  0  0  0
   18.4427   -1.4347    0.0000 H   0  0  0  0  0  0  0  0  0  0  0  0
   21.0364   -4.2025    0.0000 H   0  0  0  0  0  0  0  0  0  0  0  0
   20.0419   -5.4989    0.0000 H   0  0  0  0  0  0  0  0  0  0  0  0
   18.3354   -4.9775    0.0000 H   0  0  0  0  0  0  0  0  0  0  0  0
   21.1846   -2.9499    0.0000 H   0  0  0  0  0  0  0  0  0  0  0  0
   20.9978   -1.1753    0.0000 H   0  0  0  0  0  0  0  0  0  0  0  0
   18.8038   -1.1566    0.0000 H   0  0  0  0  0  0  0  0  0  0  0  0
   14.2443    0.2962    0.0000 H   0  0  0  0  0  0  0  0  0  0  0  0
   12.2526    0.1432    0.0000 H   0  0  0  0  0  0  0  0  0  0  0  0
   12.7280   -4.2706    0.0000 H   0  0  0  0  0  0  0  0  0  0  0  0
   11.3027   -3.1970    0.0000 H   0  0  0  0  0  0  0  0  0  0  0  0
   14.7167   -4.4576    0.0000 H   0  0  0  0  0  0  0  0  0  0  0  0
   11.2379    1.4710    0.0000 H   0  0  0  0  0  0  0  0  0  0  0  0
    9.3140    2.0084    0.0000 H   0  0  0  0  0  0  0  0  0  0  0  0
    8.2511   -2.3018    0.0000 H   0  0  0  0  0  0  0  0  0  0  0  0
    7.3013   -0.6236    0.0000 H   0  0  0  0  0  0  0  0  0  0  0  0
   11.5437   -1.9308    0.0000 H   0  0  0  0  0  0  0  0  0  0  0  0
   10.9182   -0.4214    0.0000 H   0  0  0  0  0  0  0  0  0  0  0  0
   11.3357   -5.4187    0.0000 H   0  0  0  0  0  0  0  0  0  0  0  0
   12.8276   -3.5470    0.0000 H   0  0  0  0  0  0  0  0  0  0  0  0
    8.8950    3.4385    0.0000 H   0  0  0  0  0  0  0  0  0  0  0  0
    7.5507    2.2408    0.0000 H   0  0  0  0  0  0  0  0  0  0  0  0
    6.9227    0.9109    0.0000 H   0  0  0  0  0  0  0  0  0  0  0  0
    6.7958    0.0744    0.0000 H   0  0  0  0  0  0  0  0  0  0  0  0
    6.2600   -0.5120    0.0000 H   0  0  0  0  0  0  0  0  0  0  0  0
    5.8648   -0.9749    0.0000 H   0  0  0  0  0  0  0  0  0  0  0  0
    4.6970   -1.8689    0.0000 H   0  0  0  0  0  0  0  0  0  0  0  0
    3.8244   -2.5593    0.0000 H   0  0  0  0  0  0  0  0  0  0  0  0
    8.8704    4.0327    0.0000 H   0  0  0  0  0  0  0  0  0  0  0  0
    8.2975    5.7226    0.0000 H   0  0  0  0  0  0  0  0  0  0  0  0
    6.6645    5.7733    0.0000 H   0  0  0  0  0  0  0  0  0  0  0  0
    6.4293    7.3170    0.0000 H   0  0  0  0  0  0  0  0  0  0  0  0
    5.6169    7.8393    0.0000 H   0  0  0  0  0  0  0  0  0  0  0  0
    2.7610    9.1673    0.0000 H   0  0  0  0  0  0  0  0  0  0  0  0
    4.7077   11.6207    0.0000 H   0  0  0  0  0  0  0  0  0  0  0  0
    5.8587   11.1239    0.0000 H   0  0  0  0  0  0  0  0  0  0  0  0
    7.0791    9.8221    0.0000 H   0  0  0  0  0  0  0  0  0  0  0  0
    6.1911    8.2744    0.0000 H   0  0  0  0  0  0  0  0  0  0  0  0
    1.5898    9.9286    0.0000 H   0  0  0  0  0  0  0  0  0  0  0  0
    0.3217    9.7025    0.0000 H   0  0  0  0  0  0  0  0  0  0  0  0
   -2.6404    9.8350    0.0000 H   0  0  0  0  0  0  0  0  0  0  0  0
   -2.3264    8.2316    0.0000 H   0  0  0  0  0  0  0  0  0  0  0  0
    1.7168   10.3497    0.0000 H   0  0  0  0  0  0  0  0  0  0  0  0
    2.2226   13.1415    0.0000 H   0  0  0  0  0  0  0  0  0  0  0  0
   -0.0098   15.1457    0.0000 H   0  0  0  0  0  0  0  0  0  0  0  0
   -2.8616   14.2146    0.0000 H   0  0  0  0  0  0  0  0  0  0  0  0
   -3.4811   11.2793    0.0000 H   0  0  0  0  0  0  0  0  0  0  0  0
   -3.7790    7.6588    0.0000 H   0  0  0  0  0  0  0  0  0  0  0  0
   -4.2657    6.6582    0.0000 H   0  0  0  0  0  0  0  0  0  0  0  0
   -6.3561    4.7628    0.0000 H   0  0  0  0  0  0  0  0  0  0  0  0
   -4.9498    3.6643    0.0000 H   0  0  0  0  0  0  0  0  0  0  0  0
   -7.3349    6.6200    0.0000 H   0  0  0  0  0  0  0  0  0  0  0  0
   -5.2246    2.1779    0.0000 H   0  0  0  0  0  0  0  0  0  0  0  0
   -2.4840   -1.6492    0.0000 H   0  0  0  0  0  0  0  0  0  0  0  0
   -3.8206   -0.4760    0.0000 H   0  0  0  0  0  0  0  0  0  0  0  0
   -0.8274   -2.5067    0.0000 H   0  0  0  0  0  0  0  0  0  0  0  0
   -2.0989   -2.1984    0.0000 H   0  0  0  0  0  0  0  0  0  0  0  0
    0.8435   -2.9177    0.0000 H   0  0  0  0  0  0  0  0  0  0  0  0
   -0.2975   -2.9180    0.0000 H   0  0  0  0  0  0  0  0  0  0  0  0
    1.9456   -3.0707    0.0000 H   0  0  0  0  0  0  0  0  0  0  0  0
   -1.6895    0.7960    0.0000 H   0  0  0  0  0  0  0  0  0  0  0  0
   -1.2796   -0.8892    0.0000 H   0  0  0  0  0  0  0  0  0  0  0  0
   -0.9353   -1.3641    0.0000 H   0  0  0  0  0  0  0  0  0  0  0  0
   -1.1049   -2.6118    0.0000 H   0  0  0  0  0  0  0  0  0  0  0  0
   -0.8567   -3.1433    0.0000 H   0  0  0  0  0  0  0  0  0  0  0  0
   -1.1416   -4.1959    0.0000 H   0  0  0  0  0  0  0  0  0  0  0  0
   -1.1660   -5.1834    0.0000 H   0  0  0  0  0  0  0  0  0  0  0  0
   -4.3109    4.6264    0.0000 H   0  0  0  0  0  0  0  0  0  0  0  0
   -5.2669    5.2455    0.0000 H   0  0  0  0  0  0  0  0  0  0  0  0
   -5.9849    7.1526    0.0000 H   0  0  0  0  0  0  0  0  0  0  0  0
   -4.9797    5.3486    0.0000 H   0  0  0  0  0  0  0  0  0  0  0  0
   -8.5458    5.1300    0.0000 H   0  0  0  0  0  0  0  0  0  0  0  0
   -8.8299    9.0304    0.0000 H   0  0  0  0  0  0  0  0  0  0  0  0
   -7.3857    9.3407    0.0000 H   0  0  0  0  0  0  0  0  0  0  0  0
   -6.3336    7.8994    0.0000 H   0  0  0  0  0  0  0  0  0  0  0  0
   -9.6564    8.0477    0.0000 H   0  0  0  0  0  0  0  0  0  0  0  0
  -10.7877    6.4698    0.0000 H   0  0  0  0  0  0  0  0  0  0  0  0
   -9.5483    5.1326    0.0000 H   0  0  0  0  0  0  0  0  0  0  0  0
   -9.0072    6.6470    0.0000 H   0  0  0  0  0  0  0  0  0  0  0  0
  -10.3289    6.6633    0.0000 H   0  0  0  0  0  0  0  0  0  0  0  0
  -12.6877    7.4298    0.0000 H   0  0  0  0  0  0  0  0  0  0  0  0
  -12.8478    5.6525    0.0000 H   0  0  0  0  0  0  0  0  0  0  0  0
   -8.2517    7.2175    0.0000 H   0  0  0  0  0  0  0  0  0  0  0  0
   -7.9897   10.3169    0.0000 H   0  0  0  0  0  0  0  0  0  0  0  0
  -10.0917   12.7421    0.0000 H   0  0  0  0  0  0  0  0  0  0  0  0
  -13.0189   13.3989    0.0000 H   0  0  0  0  0  0  0  0  0  0  0  0
  -15.0513   11.1922    0.0000 H   0  0  0  0  0  0  0  0  0  0  0  0
  -14.1564    8.3288    0.0000 H   0  0  0  0  0  0  0  0  0  0  0  0
  -14.0631    5.8883    0.0000 H   0  0  0  0  0  0  0  0  0  0  0  0
  -14.8123    5.1948    0.0000 H   0  0  0  0  0  0  0  0  0  0  0  0
  -17.7699    4.3064    0.0000 H   0  0  0  0  0  0  0  0  0  0  0  0
  -16.9264    2.9071    0.0000 H   0  0  0  0  0  0  0  0  0  0  0  0
  -15.9953    7.1603    0.0000 H   0  0  0  0  0  0  0  0  0  0  0  0
  -15.0149    6.0554    0.0000 H   0  0  0  0  0  0  0  0  0  0  0  0
  -19.3673    6.1683    0.0000 H   0  0  0  0  0  0  0  0  0  0  0  0
  -18.3596    4.8823    0.0000 H   0  0  0  0  0  0  0  0  0  0  0  0
  -17.7743    9.2540    0.0000 H   0  0  0  0  0  0  0  0  0  0  0  0
  -16.5900    7.9193    0.0000 H   0  0  0  0  0  0  0  0  0  0  0  0
  -19.6865    9.8314    0.0000 H   0  0  0  0  0  0  0  0  0  0  0  0
  -20.9748    8.3965    0.0000 H   0  0  0  0  0  0  0  0  0  0  0  0
  -19.9620    6.9273    0.0000 H   0  0  0  0  0  0  0  0  0  0  0  0
  -18.0763    2.4484    0.0000 H   0  0  0  0  0  0  0  0  0  0  0  0
  -18.3316    1.4600    0.0000 H   0  0  0  0  0  0  0  0  0  0  0  0
  -20.3394   -0.8864    0.0000 H   0  0  0  0  0  0  0  0  0  0  0  0
  -18.8733   -1.6075    0.0000 H   0  0  0  0  0  0  0  0  0  0  0  0
  -18.9673    2.0744    0.0000 H   0  0  0  0  0  0  0  0  0  0  0  0
  -22.6162    1.7433    0.0000 H   0  0  0  0  0  0  0  0  0  0  0  0
  -22.7931   -0.0323    0.0000 H   0  0  0  0  0  0  0  0  0  0  0  0
  -21.1468   -0.7207    0.0000 H   0  0  0  0  0  0  0  0  0  0  0  0
  -22.0048    2.8377    0.0000 H   0  0  0  0  0  0  0  0  0  0  0  0
  -20.5855    3.9193    0.0000 H   0  0  0  0  0  0  0  0  0  0  0  0
  -19.0909    2.7007    0.0000 H   0  0  0  0  0  0  0  0  0  0  0  0
  -19.5927   -2.6151    0.0000 H   0  0  0  0  0  0  0  0  0  0  0  0
  -19.2731   -3.5846    0.0000 H   0  0  0  0  0  0  0  0  0  0  0  0
  -19.6936   -6.6440    0.0000 H   0  0  0  0  0  0  0  0  0  0  0  0
  -18.0704   -6.4581    0.0000 H   0  0  0  0  0  0  0  0  0  0  0  0
  -20.1400   -3.4114    0.0000 H   0  0  0  0  0  0  0  0  0  0  0  0
  -23.0307   -5.6627    0.0000 H   0  0  0  0  0  0  0  0  0  0  0  0
  -22.2195   -7.2521    0.0000 H   0  0  0  0  0  0  0  0  0  0  0  0
  -20.4624   -6.9412    0.0000 H   0  0  0  0  0  0  0  0  0  0  0  0
  -23.1080   -4.4115    0.0000 H   0  0  0  0  0  0  0  0  0  0  0  0
  -22.4987   -2.7343    0.0000 H   0  0  0  0  0  0  0  0  0  0  0  0
  -20.5826   -2.9514    0.0000 H   0  0  0  0  0  0  0  0  0  0  0  0
  -18.0391   -7.8532    0.0000 H   0  0  0  0  0  0  0  0  0  0  0  0
  -17.3087   -8.5183    0.0000 H   0  0  0  0  0  0  0  0  0  0  0  0
  -17.6411  -10.0675    0.0000 H   0  0  0  0  0  0  0  0  0  0  0  0
  -16.2205  -11.1473    0.0000 H   0  0  0  0  0  0  0  0  0  0  0  0
  -14.7725  -10.1045    0.0000 H   0  0  0  0  0  0  0  0  0  0  0  0
  -14.1548  -11.1774    0.0000 H   0  0  0  0  0  0  0  0  0  0  0  0
   -9.7285  -11.8515    0.0000 H   0  0  0  0  0  0  0  0  0  0  0  0
  -10.9827  -11.9630    0.0000 H   0  0  0  0  0  0  0  0  0  0  0  0
   -8.1445  -11.7050    0.0000 H   0  0  0  0  0  0  0  0  0  0  0  0
   -9.2092  -11.9408    0.0000 H   0  0  0  0  0  0  0  0  0  0  0  0
   -6.4711  -11.1503    0.0000 H   0  0  0  0  0  0  0  0  0  0  0  0
   -7.6550  -11.5789    0.0000 H   0  0  0  0  0  0  0  0  0  0  0  0
   -4.9329  -10.2890    0.0000 H   0  0  0  0  0  0  0  0  0  0  0  0
   -6.0144  -10.9339    0.0000 H   0  0  0  0  0  0  0  0  0  0  0  0
   -3.5856   -9.1521    0.0000 H   0  0  0  0  0  0  0  0  0  0  0  0
   -4.5254   -9.9900    0.0000 H   0  0  0  0  0  0  0  0  0  0  0  0
   -2.4489   -7.5999    0.0000 H   0  0  0  0  0  0  0  0  0  0  0  0
   -3.2420   -8.7814    0.0000 H   0  0  0  0  0  0  0  0  0  0  0  0
   -1.8060   -6.8499    0.0000 H   0  0  0  0  0  0  0  0  0  0  0  0
  -12.9825  -12.9254    0.0000 H   0  0  0  0  0  0  0  0  0  0  0  0
  -14.3734  -12.0682    0.0000 H   0  0  0  0  0  0  0  0  0  0  0  0
  -14.1561  -10.4489    0.0000 H   0  0  0  0  0  0  0  0  0  0  0  0
  -13.9563  -12.8041    0.0000 H   0  0  0  0  0  0  0  0  0  0  0  0
  -10.6598  -13.6003    0.0000 H   0  0  0  0  0  0  0  0  0  0  0  0
   -9.7424  -16.2659    0.0000 H   0  0  0  0  0  0  0  0  0  0  0  0
  -10.0437  -14.3612    0.0000 H   0  0  0  0  0  0  0  0  0  0  0  0
  -11.1597  -19.4596    0.0000 H   0  0  0  0  0  0  0  0  0  0  0  0
   -9.1404  -17.8249    0.0000 H   0  0  0  0  0  0  0  0  0  0  0  0
  1  2  1  0
  2  3  1  0
  3  4  2  0
  4  5  1  0
  5  6  2  0
  6  7  1  0
  7  8  2  0
  7  9  1  0
  9 10  1  0
 10 11  1  0
 11 12  2  0
  9 13  1  0
 13 14  1  0
 14 15  2  0
 15 16  1  0
 16 17  2  0
 17 18  1  0
 16 19  1  0
 14 20  1  0
 20 21  1  0
 21 22  2  0
 22 23  1  0
 23 24  2  0
 24 25  1  0
 25 26  2  0
 25 27  1  0
  1 28  2  0
  1 29  1  0
 29 30  1  0
 30 31  1  0
 31 32  1  0
 32 33  2  0
 32 34  1  0
 34 35  1  0
 35 36  1  0
 36 37  1  0
 37 38  1  0
 37 39  1  0
 35 40  1  0
 40 41  2  0
 40 42  1  0
 42 43  1  0
 43 44  1  0
 44 45  1  0
 43 46  1  0
 46 47  2  0
 46 48  1  0
 48 49  1  0
 49 50  1  0
 50 51  1  0
 51 52  1  0
 52 53  1  0
 52 54  2  0
 49 55  1  0
 55 56  2  0
 55 57  1  0
 58 57  1  1
 58 59  1  0
 59 60  1  0
 60 61  1  0
 61 62  1  0
 58 63  1  0
 58 64  1  0
 64 65  2  0
 64 66  1  0
 66 67  1  0
 67 68  1  0
 68 69  1  0
 68 70  1  0
 67 71  1  0
 71 72  2  0
 71 73  1  0
 73 74  1  0
 74 75  1  0
 75 76  1  0
 76 77  2  0
 77 78  1  0
 78 79  2  0
 79 80  1  0
 80 81  2  0
 74 82  1  0
 82 83  2  0
 82 84  1  0
 84 85  1  0
 85 86  1  0
 86 87  1  0
 85 88  1  0
 88 89  2  0
 88 90  1  0
 90 91  1  0
 91 92  1  0
 92 93  1  0
 93 94  1  0
 94 95  1  0
 91 96  1  0
 96 97  1  0
 97 98  1  0
 98 99  1  0
 91100  1  0
100101  2  0
100102  1  0
102103  1  0
103104  1  0
104105  1  0
105106  1  0
105107  1  0
103108  1  0
108109  2  0
108110  1  0
110111  1  0
111112  1  0
112113  1  0
113114  2  0
114115  1  0
115116  1  0
116117  2  0
117118  1  0
118119  2  0
119120  1  0
120121  2  0
111122  1  0
122123  2  0
122124  1  0
124125  1  0
125126  1  0
126127  1  0
127128  1  0
128129  1  0
129130  1  0
125131  1  0
131132  2  0
131133  1  0
133134  1  0
134135  1  0
135136  1  0
136137  1  0
136138  1  0
134139  1  0
139140  2  0
139141  1  0
141142  1  0
142143  1  0
143144  1  0
144145  1  0
144146  1  0
142147  1  0
147148  2  0
147149  1  0
149150  1  0
150151  1  0
150152  1  0
152153  2  0
152154  1  0
154155  1  0
155156  1  0
156157  1  0
157158  1  0
158159  1  0
159160  1  0
160161  1  0
161162  1  0
155163  1  0
155164  1  1
164165  2  0
164166  1  0
166167  1  0
167168  1  0
168169  1  0
169170  1  0
169171  2  0
167172  1  0
172173  2  0
172174  1  0
  8  3  1  0
 81 76  1  0
121113  1  0
 11  6  1  0
121116  1  0
 18 13  2  0
 62 95  2  0
 22  9  1  0
 99162  2  0
 26 21  1  0
  2175  1  0
  4176  1  0
  5177  1  0
  8178  1  0
 15179  1  0
 17180  1  0
 18181  1  0
 19182  1  0
 23183  1  0
 24184  1  0
 26185  1  0
 27186  1  0
 29187  1  0
 30188  1  0
 30189  1  0
 31190  1  0
 31191  1  0
 34192  1  0
 35193  1  1
 36194  1  0
 36195  1  0
 37196  1  0
 38197  1  0
 38198  1  0
 38199  1  0
 39200  1  0
 39201  1  0
 39202  1  0
 42203  1  0
 43204  1  1
 44205  1  0
 44206  1  0
 45207  1  0
 48208  1  0
 49209  1  1
 50210  1  0
 50211  1  0
 51212  1  0
 51213  1  0
 53214  1  0
 53215  1  0
 57216  1  0
 59217  1  0
 59218  1  0
 60219  1  0
 60220  1  0
 61221  1  0
 61222  1  0
 62223  1  0
 63224  1  0
 63225  1  0
 63226  1  0
 66227  1  0
 67228  1  6
 68229  1  1
 69230  1  0
 70231  1  0
 70232  1  0
 70233  1  0
 73234  1  0
 74235  1  6
 75236  1  0
 75237  1  0
 77238  1  0
 78239  1  0
 79240  1  0
 80241  1  0
 81242  1  0
 84243  1  0
 85244  1  6
 86245  1  0
 86246  1  0
 87247  1  0
 90248  1  0
 92249  1  0
 92250  1  0
 93251  1  0
 93252  1  0
 94253  1  0
 94254  1  0
 95255  1  0
 96256  1  0
 96257  1  0
 97258  1  0
 97259  1  0
 98260  1  0
 98261  1  0
 99262  1  0
102263  1  0
103264  1  6
104265  1  0
104266  1  0
105267  1  0
106268  1  0
106269  1  0
106270  1  0
107271  1  0
107272  1  0
107273  1  0
110274  1  0
111275  1  6
112276  1  0
112277  1  0
114278  1  0
115279  1  0
117280  1  0
118281  1  0
119282  1  0
120283  1  0
124284  1  0
125285  1  6
126286  1  0
126287  1  0
127288  1  0
127289  1  0
128290  1  0
128291  1  0
129292  1  0
129293  1  0
130294  1  0
130295  1  0
130296  1  0
133297  1  0
134298  1  6
135299  1  0
135300  1  0
136301  1  0
137302  1  0
137303  1  0
137304  1  0
138305  1  0
138306  1  0
138307  1  0
141308  1  0
142309  1  6
143310  1  0
143311  1  0
144312  1  0
145313  1  0
145314  1  0
145315  1  0
146316  1  0
146317  1  0
146318  1  0
149319  1  0
150320  1  6
151321  1  0
151322  1  0
151323  1  0
154324  1  0
156325  1  0
156326  1  0
157327  1  0
157328  1  0
158329  1  0
158330  1  0
159331  1  0
159332  1  0
160333  1  0
160334  1  0
161335  1  0
161336  1  0
162337  1  0
163338  1  0
163339  1  0
163340  1  0
166341  1  0
167342  1  1
168343  1  0
168344  1  0
170345  1  0
170346  1  0
M  CHG  2 130   1 174  -1
M  END
