
     RDKit          2D

329337  0  0  0  0  0  0  0  0999 V2000
   15.4300   -4.1865    0.0000 C   0  0  0  0  0  0  0  0  0  0  0  0
   16.6920   -4.9972    0.0000 N   0  0  0  0  0  0  0  0  0  0  0  0
   16.6210   -6.4955    0.0000 C   0  0  0  0  0  0  0  0  0  0  0  0
   15.2879   -7.1832    0.0000 C   0  0  0  0  0  0  0  0  0  0  0  0
   15.2169   -8.6815    0.0000 C   0  0  0  0  0  0  0  0  0  0  0  0
   16.4789   -9.4922    0.0000 C   0  0  0  0  0  0  0  0  0  0  0  0
   17.8120   -8.8045    0.0000 C   0  0  0  0  0  0  0  0  0  0  0  0
   17.8831   -7.3062    0.0000 C   0  0  0  0  0  0  0  0  0  0  0  0
   18.8780   -9.8599    0.0000 C   0  0  0  0  0  0  0  0  0  0  0  0
   18.2036  -11.1998    0.0000 O   0  0  0  0  0  0  0  0  0  0  0  0
   16.7210  -10.9725    0.0000 C   0  0  0  0  0  0  0  0  0  0  0  0
   15.6656  -12.0384    0.0000 O   0  0  0  0  0  0  0  0  0  0  0  0
   19.8277  -11.0209    0.0000 C   0  0  0  0  0  0  0  0  0  0  0  0
   21.3081  -10.7788    0.0000 C   0  0  0  0  0  0  0  0  0  0  0  0
   22.2579  -11.9398    0.0000 C   0  0  0  0  0  0  0  0  0  0  0  0
   21.7273  -13.3429    0.0000 C   0  0  0  0  0  0  0  0  0  0  0  0
   20.2470  -13.5849    0.0000 C   0  0  0  0  0  0  0  0  0  0  0  0
   19.2972  -12.4239    0.0000 C   0  0  0  0  0  0  0  0  0  0  0  0
   22.6771  -14.5039    0.0000 O   0  0  0  0  0  0  0  0  0  0  0  0
   21.8386   -9.3758    0.0000 O   0  0  0  0  0  0  0  0  0  0  0  0
   20.8889   -8.2148    0.0000 C   0  0  0  0  0  0  0  0  0  0  0  0
   19.4085   -8.4568    0.0000 C   0  0  0  0  0  0  0  0  0  0  0  0
   19.1496   -7.1829    0.0000 C   0  0  0  0  0  0  0  0  0  0  0  0
   19.4325   -6.4346    0.0000 C   0  0  0  0  0  0  0  0  0  0  0  0
   20.2220   -6.3055    0.0000 C   0  0  0  0  0  0  0  0  0  0  0  0
   20.7286   -6.9247    0.0000 C   0  0  0  0  0  0  0  0  0  0  0  0
   21.0002   -4.2477    0.0000 O   0  0  0  0  0  0  0  0  0  0  0  0
   14.0969   -4.8742    0.0000 S   0  0  0  0  0  0  0  0  0  0  0  0
   15.5010   -2.6882    0.0000 N   0  0  0  0  0  0  0  0  0  0  0  0
   14.2389   -1.8775    0.0000 C   0  0  0  0  0  0  0  0  0  0  0  0
   14.3100   -0.3792    0.0000 C   0  0  0  0  0  0  0  0  0  0  0  0
   13.0479    0.4315    0.0000 C   0  0  0  0  0  0  0  0  0  0  0  0
   12.0499   -0.6883    0.0000 O   0  0  0  0  0  0  0  0  0  0  0  0
   13.1189    1.9298    0.0000 N   0  0  0  0  0  0  0  0  0  0  0  0
   11.8569    2.7404    0.0000 C   0  0  0  0  0  0  0  0  0  0  0  0
   11.6370    1.2567    0.0000 C   0  0  0  0  0  0  0  0  0  0  0  0
   10.9895   -0.0964    0.0000 C   0  0  0  0  0  0  0  0  0  0  0  0
    9.9720   -1.1985    0.0000 C   0  0  0  0  0  0  0  0  0  0  0  0
    8.6749   -1.9518    0.0000 C   0  0  0  0  0  0  0  0  0  0  0  0
   13.1149    3.5574    0.0000 C   0  0  0  0  0  0  0  0  0  0  0  0
   11.6296    4.2231    0.0000 C   0  0  0  0  0  0  0  0  0  0  0  0
   13.0619    4.6688    0.0000 O   0  0  0  0  0  0  0  0  0  0  0  0
   10.9754    5.5730    0.0000 N   0  0  0  0  0  0  0  0  0  0  0  0
    9.9524    6.6700    0.0000 C   0  0  0  0  0  0  0  0  0  0  0  0
   10.0980    8.1629    0.0000 C   0  0  0  0  0  0  0  0  0  0  0  0
   11.4638    8.7832    0.0000 C   0  0  0  0  0  0  0  0  0  0  0  0
   11.6094   10.2762    0.0000 C   0  0  0  0  0  0  0  0  0  0  0  0
   12.9751   10.8965    0.0000 N   0  0  0  0  0  0  0  0  0  0  0  0
   13.1207   12.3894    0.0000 C   0  0  0  0  0  0  0  0  0  0  0  0
   14.4865   13.0097    0.0000 N   0  0  0  0  0  0  0  0  0  0  0  0
   11.9006   13.2620    0.0000 N   0  0  0  0  0  0  0  0  0  0  0  0
    8.6515    7.4167    0.0000 C   0  0  0  0  0  0  0  0  0  0  0  0
    9.1960    8.8144    0.0000 O   0  0  0  0  0  0  0  0  0  0  0  0
    7.1883    7.7469    0.0000 N   0  0  0  0  0  0  0  0  0  0  0  0
    5.6928    7.6311    0.0000 C   0  0  0  0  0  0  0  0  0  0  0  0
    4.6164    8.6757    0.0000 C   0  0  0  0  0  0  0  0  0  0  0  0
    4.9829   10.1303    0.0000 C   0  0  0  0  0  0  0  0  0  0  0  0
    3.9065   11.1749    0.0000 C   0  0  0  0  0  0  0  0  0  0  0  0
    4.2730   12.6295    0.0000 N   0  0  0  0  0  0  0  0  0  0  0  0
    3.1966   13.6742    0.0000 C   0  0  0  0  0  0  0  0  0  0  0  0
    3.5631   15.1287    0.0000 N   0  0  0  0  0  0  0  0  0  0  0  0
    1.7536   13.2643    0.0000 N   0  0  0  0  0  0  0  0  0  0  0  0
    4.2978    7.0796    0.0000 C   0  0  0  0  0  0  0  0  0  0  0  0
    3.5446    8.3767    0.0000 O   0  0  0  0  0  0  0  0  0  0  0  0
    3.1274    6.1414    0.0000 N   0  0  0  0  0  0  0  0  0  0  0  0
    2.2855    4.8999    0.0000 C   0  0  0  0  0  0  0  0  0  0  0  0
    0.7976    4.7097    0.0000 C   0  0  0  0  0  0  0  0  0  0  0  0
    1.8470    3.4655    0.0000 C   0  0  0  0  0  0  0  0  0  0  0  0
    1.0756    3.9007    0.0000 O   0  0  0  0  0  0  0  0  0  0  0  0
    1.8507    1.9655    0.0000 N   0  0  0  0  0  0  0  0  0  0  0  0
    2.2964    0.5332    0.0000 C   0  0  0  0  0  0  0  0  0  0  0  0
    3.1445   -0.7040    0.0000 C   0  0  0  0  0  0  0  0  0  0  0  0
    4.3196   -1.6363    0.0000 C   0  0  0  0  0  0  0  0  0  0  0  0
    5.7172   -2.1808    0.0000 C   0  0  0  0  0  0  0  0  0  0  0  0
    7.2133   -2.2892    0.0000 C   0  0  0  0  0  0  0  0  0  0  0  0
    2.1430   -1.0532    0.0000 C   0  0  0  0  0  0  0  0  0  0  0  0
    2.3685   -2.4014    0.0000 C   0  0  0  0  0  0  0  0  0  0  0  0
    2.3347   -3.7679    0.0000 C   0  0  0  0  0  0  0  0  0  0  0  0
    2.0429   -5.1033    0.0000 C   0  0  0  0  0  0  0  0  0  0  0  0
    0.9561    1.3958    0.0000 C   0  0  0  0  0  0  0  0  0  0  0  0
    2.7185    2.7126    0.0000 O   0  0  0  0  0  0  0  0  0  0  0  0
    0.0376    2.4081    0.0000 N   0  0  0  0  0  0  0  0  0  0  0  0
   -1.0560    3.2282    0.0000 C   0  0  0  0  0  0  0  0  0  0  0  0
   -0.7016    5.3256    0.0000 C   0  0  0  0  0  0  0  0  0  0  0  0
   -2.0059    6.0664    0.0000 C   0  0  0  0  0  0  0  0  0  0  0  0
   -2.0165    7.5664    0.0000 C   0  0  0  0  0  0  0  0  0  0  0  0
   -3.3207    8.3073    0.0000 N   0  0  0  0  0  0  0  0  0  0  0  0
   -3.3313    9.8072    0.0000 C   0  0  0  0  0  0  0  0  0  0  0  0
   -4.4175   10.8417    0.0000 N   0  0  0  0  0  0  0  0  0  0  0  0
   -2.0375   10.5663    0.0000 N   0  0  0  0  0  0  0  0  0  0  0  0
   -2.2850    3.8266    0.0000 C   0  0  0  0  0  0  0  0  0  0  0  0
   -2.0126    5.2346    0.0000 O   0  0  0  0  0  0  0  0  0  0  0  0
   -3.6050    4.1816    0.0000 N   0  0  0  0  0  0  0  0  0  0  0  0
   -4.9683    4.2803    0.0000 C   0  0  0  0  0  0  0  0  0  0  0  0
   -5.8042    6.2363    0.0000 C   0  0  0  0  0  0  0  0  0  0  0  0
   -5.1262    7.5744    0.0000 C   0  0  0  0  0  0  0  0  0  0  0  0
   -5.9460    8.8305    0.0000 C   0  0  0  0  0  0  0  0  0  0  0  0
   -5.2681   10.1686    0.0000 N   0  0  0  0  0  0  0  0  0  0  0  0
   -6.0879   11.4247    0.0000 C   0  0  0  0  0  0  0  0  0  0  0  0
   -5.4099   12.7628    0.0000 N   0  0  0  0  0  0  0  0  0  0  0  0
   -7.5856   11.3428    0.0000 N   0  0  0  0  0  0  0  0  0  0  0  0
   -6.3257    4.1193    0.0000 C   0  0  0  0  0  0  0  0  0  0  0  0
   -6.9678    6.2198    0.0000 O   0  0  0  0  0  0  0  0  0  0  0  0
   -7.6281    3.7043    0.0000 N   0  0  0  0  0  0  0  0  0  0  0  0
   -8.8284    3.0503    0.0000 C   0  0  0  0  0  0  0  0  0  0  0  0
  -10.5891    4.2438    0.0000 C   0  0  0  0  0  0  0  0  0  0  0  0
  -10.7421    5.7360    0.0000 C   0  0  0  0  0  0  0  0  0  0  0  0
  -12.1109    6.3495    0.0000 C   0  0  0  0  0  0  0  0  0  0  0  0
  -12.2640    7.8417    0.0000 N   0  0  0  0  0  0  0  0  0  0  0  0
  -13.6328    8.4552    0.0000 C   0  0  0  0  0  0  0  0  0  0  0  0
  -13.7859    9.9474    0.0000 N   0  0  0  0  0  0  0  0  0  0  0  0
  -14.8485    7.5766    0.0000 N   0  0  0  0  0  0  0  0  0  0  0  0
   -9.8833    2.1809    0.0000 C   0  0  0  0  0  0  0  0  0  0  0  0
  -11.5590    3.6009    0.0000 O   0  0  0  0  0  0  0  0  0  0  0  0
  -10.7545    1.1276    0.0000 N   0  0  0  0  0  0  0  0  0  0  0  0
  -11.4107   -0.0715    0.0000 C   0  0  0  0  0  0  0  0  0  0  0  0
  -13.5372   -0.0192    0.0000 C   0  0  0  0  0  0  0  0  0  0  0  0
  -14.4727    1.1533    0.0000 C   0  0  0  0  0  0  0  0  0  0  0  0
  -14.0739    2.5993    0.0000 C   0  0  0  0  0  0  0  0  0  0  0  0
  -15.3260    3.4254    0.0000 N   0  0  0  0  0  0  0  0  0  0  0  0
  -16.4985    2.4899    0.0000 C   0  0  0  0  0  0  0  0  0  0  0  0
  -17.9783    2.7353    0.0000 C   0  0  0  0  0  0  0  0  0  0  0  0
  -18.9307    1.5764    0.0000 C   0  0  0  0  0  0  0  0  0  0  0  0
  -18.4033    0.1722    0.0000 C   0  0  0  0  0  0  0  0  0  0  0  0
  -16.9235   -0.0732    0.0000 C   0  0  0  0  0  0  0  0  0  0  0  0
  -15.9711    1.0857    0.0000 C   0  0  0  0  0  0  0  0  0  0  0  0
  -11.8281   -1.3731    0.0000 C   0  0  0  0  0  0  0  0  0  0  0  0
  -14.0055   -1.0845    0.0000 O   0  0  0  0  0  0  0  0  0  0  0  0
  -11.9916   -2.7302    0.0000 N   0  0  0  0  0  0  0  0  0  0  0  0
  -11.8954   -4.0938    0.0000 C   0  0  0  0  0  0  0  0  0  0  0  0
  -13.7125   -5.1994    0.0000 C   0  0  0  0  0  0  0  0  0  0  0  0
  -15.1334   -4.7188    0.0000 C   0  0  0  0  0  0  0  0  0  0  0  0
  -16.2601   -5.7090    0.0000 C   0  0  0  0  0  0  0  0  0  0  0  0
  -17.6810   -5.2284    0.0000 N   0  0  0  0  0  0  0  0  0  0  0  0
  -18.8077   -6.2186    0.0000 C   0  0  0  0  0  0  0  0  0  0  0  0
  -20.2286   -5.7380    0.0000 N   0  0  0  0  0  0  0  0  0  0  0  0
  -18.5135   -7.6895    0.0000 N   0  0  0  0  0  0  0  0  0  0  0  0
  -11.5428   -5.4144    0.0000 C   0  0  0  0  0  0  0  0  0  0  0  0
  -13.5305   -6.3488    0.0000 O   0  0  0  0  0  0  0  0  0  0  0  0
  -10.9466   -6.6445    0.0000 N   0  0  0  0  0  0  0  0  0  0  0  0
  -10.1284   -7.7395    0.0000 C   0  0  0  0  0  0  0  0  0  0  0  0
  -11.0593   -9.6521    0.0000 C   0  0  0  0  0  0  0  0  0  0  0  0
  -12.5145  -10.0159    0.0000 C   0  0  0  0  0  0  0  0  0  0  0  0
  -12.9270  -11.4581    0.0000 C   0  0  0  0  0  0  0  0  0  0  0  0
  -14.3822  -11.8220    0.0000 N   0  0  0  0  0  0  0  0  0  0  0  0
  -14.7946  -13.2642    0.0000 C   0  0  0  0  0  0  0  0  0  0  0  0
  -16.2498  -13.6280    0.0000 N   0  0  0  0  0  0  0  0  0  0  0  0
  -13.7519  -14.3425    0.0000 N   0  0  0  0  0  0  0  0  0  0  0  0
   -9.1178   -8.6599    0.0000 C   0  0  0  0  0  0  0  0  0  0  0  0
  -10.2848  -10.5207    0.0000 O   0  0  0  0  0  0  0  0  0  0  0  0
   -7.9513   -9.3724    0.0000 N   0  0  0  0  0  0  0  0  0  0  0  0
   -6.6710   -9.8512    0.0000 C   0  0  0  0  0  0  0  0  0  0  0  0
   -5.3232  -10.0791    0.0000 C   0  0  0  0  0  0  0  0  0  0  0  0
   -3.9566  -10.0479    0.0000 C   0  0  0  0  0  0  0  0  0  0  0  0
   -2.6207   -9.7585    0.0000 C   0  0  0  0  0  0  0  0  0  0  0  0
   -1.3636   -9.2216    0.0000 C   0  0  0  0  0  0  0  0  0  0  0  0
   -0.2309   -8.4564    0.0000 C   0  0  0  0  0  0  0  0  0  0  0  0
    0.7365   -7.4907    0.0000 C   0  0  0  0  0  0  0  0  0  0  0  0
    1.5037   -6.3594    0.0000 C   0  0  0  0  0  0  0  0  0  0  0  0
   -7.9475  -11.5527    0.0000 C   0  0  0  0  0  0  0  0  0  0  0  0
   -6.4201  -11.9635    0.0000 C   0  0  0  0  0  0  0  0  0  0  0  0
   -7.3066  -13.1734    0.0000 O   0  0  0  0  0  0  0  0  0  0  0  0
   -5.0864  -12.6500    0.0000 O   0  0  0  0  0  0  0  0  0  0  0  0
   17.9314   -4.1522    0.0000 H   0  0  0  0  0  0  0  0  0  0  0  0
   14.0258   -6.3725    0.0000 H   0  0  0  0  0  0  0  0  0  0  0  0
   13.8838   -9.3691    0.0000 H   0  0  0  0  0  0  0  0  0  0  0  0
   18.6225   -6.6568    0.0000 H   0  0  0  0  0  0  0  0  0  0  0  0
   23.7382  -11.6978    0.0000 H   0  0  0  0  0  0  0  0  0  0  0  0
   19.7164  -14.9879    0.0000 H   0  0  0  0  0  0  0  0  0  0  0  0
   17.8168  -12.6659    0.0000 H   0  0  0  0  0  0  0  0  0  0  0  0
   22.1465  -15.9069    0.0000 H   0  0  0  0  0  0  0  0  0  0  0  0
   16.9784   -7.5379    0.0000 H   0  0  0  0  0  0  0  0  0  0  0  0
   18.1881   -4.6247    0.0000 H   0  0  0  0  0  0  0  0  0  0  0  0
   22.8998   -6.5697    0.0000 H   0  0  0  0  0  0  0  0  0  0  0  0
   22.4805   -4.0057    0.0000 H   0  0  0  0  0  0  0  0  0  0  0  0
   16.8341   -2.0006    0.0000 H   0  0  0  0  0  0  0  0  0  0  0  0
   13.6597   -3.2612    0.0000 H   0  0  0  0  0  0  0  0  0  0  0  0
   12.7757   -1.5474    0.0000 H   0  0  0  0  0  0  0  0  0  0  0  0
   15.7732   -0.7094    0.0000 H   0  0  0  0  0  0  0  0  0  0  0  0
   14.8892    1.0044    0.0000 H   0  0  0  0  0  0  0  0  0  0  0  0
   14.5259    2.4498    0.0000 H   0  0  0  0  0  0  0  0  0  0  0  0
   13.1362    1.3052    0.0000 H   0  0  0  0  0  0  0  0  0  0  0  0
   12.4571    0.0007    0.0000 H   0  0  0  0  0  0  0  0  0  0  0  0
   12.2978   -0.8303    0.0000 H   0  0  0  0  0  0  0  0  0  0  0  0
   11.7396   -1.3954    0.0000 H   0  0  0  0  0  0  0  0  0  0  0  0
   11.3267   -1.8427    0.0000 H   0  0  0  0  0  0  0  0  0  0  0  0
   10.1251   -2.6907    0.0000 H   0  0  0  0  0  0  0  0  0  0  0  0
    9.2264   -3.3467    0.0000 H   0  0  0  0  0  0  0  0  0  0  0  0
   14.5244    3.0444    0.0000 H   0  0  0  0  0  0  0  0  0  0  0  0
   14.0176    4.7554    0.0000 H   0  0  0  0  0  0  0  0  0  0  0  0
   12.3877    4.8694    0.0000 H   0  0  0  0  0  0  0  0  0  0  0  0
   12.2127    6.4210    0.0000 H   0  0  0  0  0  0  0  0  0  0  0  0
   11.4212    6.9745    0.0000 H   0  0  0  0  0  0  0  0  0  0  0  0
    9.5500    9.5592    0.0000 H   0  0  0  0  0  0  0  0  0  0  0  0
    8.6189    8.4124    0.0000 H   0  0  0  0  0  0  0  0  0  0  0  0
   12.9593    8.8991    0.0000 H   0  0  0  0  0  0  0  0  0  0  0  0
   12.0118    7.3869    0.0000 H   0  0  0  0  0  0  0  0  0  0  0  0
   11.2356   11.7288    0.0000 H   0  0  0  0  0  0  0  0  0  0  0  0
   10.1109   10.3435    0.0000 H   0  0  0  0  0  0  0  0  0  0  0  0
   14.1952   10.0239    0.0000 H   0  0  0  0  0  0  0  0  0  0  0  0
   14.6321   14.5027    0.0000 H   0  0  0  0  0  0  0  0  0  0  0  0
   15.7065   12.1372    0.0000 H   0  0  0  0  0  0  0  0  0  0  0  0
   12.0463   14.7549    0.0000 H   0  0  0  0  0  0  0  0  0  0  0  0
   10.5349   12.6416    0.0000 H   0  0  0  0  0  0  0  0  0  0  0  0
    7.2967    9.2430    0.0000 H   0  0  0  0  0  0  0  0  0  0  0  0
    6.3705    8.9692    0.0000 H   0  0  0  0  0  0  0  0  0  0  0  0
    3.1830    9.1178    0.0000 H   0  0  0  0  0  0  0  0  0  0  0  0
    3.4991    7.6749    0.0000 H   0  0  0  0  0  0  0  0  0  0  0  0
    5.8248   11.3717    0.0000 H   0  0  0  0  0  0  0  0  0  0  0  0
    6.4162    9.6882    0.0000 H   0  0  0  0  0  0  0  0  0  0  0  0
    2.5377   11.7885    0.0000 H   0  0  0  0  0  0  0  0  0  0  0  0
    2.9195   10.0454    0.0000 H   0  0  0  0  0  0  0  0  0  0  0  0
    5.7159   13.0393    0.0000 H   0  0  0  0  0  0  0  0  0  0  0  0
    2.4867   16.1734    0.0000 H   0  0  0  0  0  0  0  0  0  0  0  0
    5.0060   15.5385    0.0000 H   0  0  0  0  0  0  0  0  0  0  0  0
    0.6772   14.3090    0.0000 H   0  0  0  0  0  0  0  0  0  0  0  0
    1.3871   11.8098    0.0000 H   0  0  0  0  0  0  0  0  0  0  0  0
    2.0253    7.1589    0.0000 H   0  0  0  0  0  0  0  0  0  0  0  0
    1.5002    6.1779    0.0000 H   0  0  0  0  0  0  0  0  0  0  0  0
    0.0188    6.0049    0.0000 H   0  0  0  0  0  0  0  0  0  0  0  0
   -0.6622    4.3651    0.0000 H   0  0  0  0  0  0  0  0  0  0  0  0
    0.7003    3.2129    0.0000 H   0  0  0  0  0  0  0  0  0  0  0  0
    0.3680    1.7382    0.0000 H   0  0  0  0  0  0  0  0  0  0  0  0
    2.9580   -2.1924    0.0000 H   0  0  0  0  0  0  0  0  0  0  0  0
    1.6679   -0.9682    0.0000 H   0  0  0  0  0  0  0  0  0  0  0  0
    4.5801   -3.1135    0.0000 H   0  0  0  0  0  0  0  0  0  0  0  0
    3.3215   -2.7561    0.0000 H   0  0  0  0  0  0  0  0  0  0  0  0
    6.2338   -3.5891    0.0000 H   0  0  0  0  0  0  0  0  0  0  0  0
    5.0936   -3.5451    0.0000 H   0  0  0  0  0  0  0  0  0  0  0  0
    7.3291   -3.7847    0.0000 H   0  0  0  0  0  0  0  0  0  0  0  0
    3.8468    0.2202    0.0000 H   0  0  0  0  0  0  0  0  0  0  0  0
    4.1910   -1.4797    0.0000 H   0  0  0  0  0  0  0  0  0  0  0  0
    4.5166   -1.9676    0.0000 H   0  0  0  0  0  0  0  0  0  0  0  0
    4.2988   -3.2078    0.0000 H   0  0  0  0  0  0  0  0  0  0  0  0
    4.5261   -3.7485    0.0000 H   0  0  0  0  0  0  0  0  0  0  0  0
    4.2005   -4.7893    0.0000 H   0  0  0  0  0  0  0  0  0  0  0  0
    4.1379   -5.7751    0.0000 H   0  0  0  0  0  0  0  0  0  0  0  0
    1.3762    4.1495    0.0000 H   0  0  0  0  0  0  0  0  0  0  0  0
    0.5558    4.6594    0.0000 H   0  0  0  0  0  0  0  0  0  0  0  0
   -0.1985    6.7387    0.0000 H   0  0  0  0  0  0  0  0  0  0  0  0
    0.7774    5.0755    0.0000 H   0  0  0  0  0  0  0  0  0  0  0  0
   -3.4434    6.4949    0.0000 H   0  0  0  0  0  0  0  0  0  0  0  0
   -2.8360    4.8171    0.0000 H   0  0  0  0  0  0  0  0  0  0  0  0
   -1.5133    8.9795    0.0000 H   0  0  0  0  0  0  0  0  0  0  0  0
   -0.5180    7.4985    0.0000 H   0  0  0  0  0  0  0  0  0  0  0  0
   -4.7597    7.8838    0.0000 H   0  0  0  0  0  0  0  0  0  0  0  0
   -4.6461   12.0480    0.0000 H   0  0  0  0  0  0  0  0  0  0  0  0
   -6.1391   10.1861    0.0000 H   0  0  0  0  0  0  0  0  0  0  0  0
   -2.0481   12.0663    0.0000 H   0  0  0  0  0  0  0  0  0  0  0  0
   -0.7333    9.8255    0.0000 H   0  0  0  0  0  0  0  0  0  0  0  0
   -3.2382    6.3508    0.0000 H   0  0  0  0  0  0  0  0  0  0  0  0
   -4.2229    6.2725    0.0000 H   0  0  0  0  0  0  0  0  0  0  0  0
   -7.0042    7.1363    0.0000 H   0  0  0  0  0  0  0  0  0  0  0  0
   -7.1145    5.5062    0.0000 H   0  0  0  0  0  0  0  0  0  0  0  0
   -4.3122    8.8343    0.0000 H   0  0  0  0  0  0  0  0  0  0  0  0
   -3.8255    6.8273    0.0000 H   0  0  0  0  0  0  0  0  0  0  0  0
   -7.1460    9.7305    0.0000 H   0  0  0  0  0  0  0  0  0  0  0  0
   -7.1576    7.9461    0.0000 H   0  0  0  0  0  0  0  0  0  0  0  0
   -3.8346   10.6105    0.0000 H   0  0  0  0  0  0  0  0  0  0  0  0
   -6.2297   14.0189    0.0000 H   0  0  0  0  0  0  0  0  0  0  0  0
   -3.9122   12.8447    0.0000 H   0  0  0  0  0  0  0  0  0  0  0  0
   -8.4054   12.5990    0.0000 H   0  0  0  0  0  0  0  0  0  0  0  0
   -8.2636   10.0048    0.0000 H   0  0  0  0  0  0  0  0  0  0  0  0
   -8.3198    5.7890    0.0000 H   0  0  0  0  0  0  0  0  0  0  0  0
   -9.0953    5.1251    0.0000 H   0  0  0  0  0  0  0  0  0  0  0  0
  -12.0851    4.3522    0.0000 H   0  0  0  0  0  0  0  0  0  0  0  0
  -11.2966    2.9212    0.0000 H   0  0  0  0  0  0  0  0  0  0  0  0
  -10.3756    7.1905    0.0000 H   0  0  0  0  0  0  0  0  0  0  0  0
   -9.2643    5.9929    0.0000 H   0  0  0  0  0  0  0  0  0  0  0  0
  -13.6070    6.4579    0.0000 H   0  0  0  0  0  0  0  0  0  0  0  0
  -12.6520    4.9505    0.0000 H   0  0  0  0  0  0  0  0  0  0  0  0
  -11.0483    8.7204    0.0000 H   0  0  0  0  0  0  0  0  0  0  0  0
  -15.1547   10.5609    0.0000 H   0  0  0  0  0  0  0  0  0  0  0  0
  -12.5701   10.8260    0.0000 H   0  0  0  0  0  0  0  0  0  0  0  0
  -16.2173    8.1901    0.0000 H   0  0  0  0  0  0  0  0  0  0  0  0
  -14.6954    6.0844    0.0000 H   0  0  0  0  0  0  0  0  0  0  0  0
  -12.4635    2.5075    0.0000 H   0  0  0  0  0  0  0  0  0  0  0  0
  -12.9132    1.4342    0.0000 H   0  0  0  0  0  0  0  0  0  0  0  0
  -14.9320   -0.5710    0.0000 H   0  0  0  0  0  0  0  0  0  0  0  0
  -13.4173   -1.5144    0.0000 H   0  0  0  0  0  0  0  0  0  0  0  0
  -12.7445    3.2939    0.0000 H   0  0  0  0  0  0  0  0  0  0  0  0
  -15.3936    4.9239    0.0000 H   0  0  0  0  0  0  0  0  0  0  0  0
  -18.5057    4.1395    0.0000 H   0  0  0  0  0  0  0  0  0  0  0  0
  -20.4105    1.8218    0.0000 H   0  0  0  0  0  0  0  0  0  0  0  0
  -19.3557   -0.9866    0.0000 H   0  0  0  0  0  0  0  0  0  0  0  0
  -16.3962   -1.4774    0.0000 H   0  0  0  0  0  0  0  0  0  0  0  0
  -14.1753   -2.4934    0.0000 H   0  0  0  0  0  0  0  0  0  0  0  0
  -13.8935   -3.4745    0.0000 H   0  0  0  0  0  0  0  0  0  0  0  0
  -14.4325   -6.5153    0.0000 H   0  0  0  0  0  0  0  0  0  0  0  0
  -12.8033   -6.3925    0.0000 H   0  0  0  0  0  0  0  0  0  0  0  0
  -16.3042   -3.7812    0.0000 H   0  0  0  0  0  0  0  0  0  0  0  0
  -14.7531   -3.2678    0.0000 H   0  0  0  0  0  0  0  0  0  0  0  0
  -16.9801   -7.0249    0.0000 H   0  0  0  0  0  0  0  0  0  0  0  0
  -15.2123   -6.7824    0.0000 H   0  0  0  0  0  0  0  0  0  0  0  0
  -17.9752   -3.7576    0.0000 H   0  0  0  0  0  0  0  0  0  0  0  0
  -21.3553   -6.7282    0.0000 H   0  0  0  0  0  0  0  0  0  0  0  0
  -20.5228   -4.2672    0.0000 H   0  0  0  0  0  0  0  0  0  0  0  0
  -19.6401   -8.6797    0.0000 H   0  0  0  0  0  0  0  0  0  0  0  0
  -17.0925   -8.1701    0.0000 H   0  0  0  0  0  0  0  0  0  0  0  0
  -12.9117   -7.6258    0.0000 H   0  0  0  0  0  0  0  0  0  0  0  0
  -12.1442   -8.2989    0.0000 H   0  0  0  0  0  0  0  0  0  0  0  0
  -10.9537  -11.1483    0.0000 H   0  0  0  0  0  0  0  0  0  0  0  0
   -9.6494  -10.1642    0.0000 H   0  0  0  0  0  0  0  0  0  0  0  0
  -14.0064   -9.8602    0.0000 H   0  0  0  0  0  0  0  0  0  0  0  0
  -12.9791   -8.5897    0.0000 H   0  0  0  0  0  0  0  0  0  0  0  0
  -12.8213  -12.9544    0.0000 H   0  0  0  0  0  0  0  0  0  0  0  0
  -11.4652  -11.7946    0.0000 H   0  0  0  0  0  0  0  0  0  0  0  0
  -15.4249  -10.7437    0.0000 H   0  0  0  0  0  0  0  0  0  0  0  0
  -16.6623  -15.0702    0.0000 H   0  0  0  0  0  0  0  0  0  0  0  0
  -17.2926  -12.5497    0.0000 H   0  0  0  0  0  0  0  0  0  0  0  0
  -14.1644  -15.7846    0.0000 H   0  0  0  0  0  0  0  0  0  0  0  0
  -12.2967  -13.9786    0.0000 H   0  0  0  0  0  0  0  0  0  0  0  0
   -9.0738  -11.2603    0.0000 H   0  0  0  0  0  0  0  0  0  0  0  0
   -4.6771  -12.1057    0.0000 H   0  0  0  0  0  0  0  0  0  0  0  0
   -5.9346  -12.1685    0.0000 H   0  0  0  0  0  0  0  0  0  0  0  0
   -3.0885  -12.0208    0.0000 H   0  0  0  0  0  0  0  0  0  0  0  0
   -4.1616  -12.2152    0.0000 H   0  0  0  0  0  0  0  0  0  0  0  0
   -1.3949  -11.5315    0.0000 H   0  0  0  0  0  0  0  0  0  0  0  0
   -2.5946  -11.9138    0.0000 H   0  0  0  0  0  0  0  0  0  0  0  0
    0.1755  -10.7305    0.0000 H   0  0  0  0  0  0  0  0  0  0  0  0
   -0.9301  -11.3330    0.0000 H   0  0  0  0  0  0  0  0  0  0  0  0
    1.5660   -9.6468    0.0000 H   0  0  0  0  0  0  0  0  0  0  0  0
    0.5943  -10.4477    0.0000 H   0  0  0  0  0  0  0  0  0  0  0  0
    2.7621   -8.1399    0.0000 H   0  0  0  0  0  0  0  0  0  0  0  0
    1.9237   -9.2898    0.0000 H   0  0  0  0  0  0  0  0  0  0  0  0
    3.4337   -7.4155    0.0000 H   0  0  0  0  0  0  0  0  0  0  0  0
   -7.7873  -13.0441    0.0000 H   0  0  0  0  0  0  0  0  0  0  0  0
   -9.2448  -12.3057    0.0000 H   0  0  0  0  0  0  0  0  0  0  0  0
   -9.0469  -10.5323    0.0000 H   0  0  0  0  0  0  0  0  0  0  0  0
  1  2  1  0
  2  3  1  0
  3  4  2  0
  4  5  1  0
  5  6  2  0
  6  7  1  0
  7  8  2  0
  7  9  1  0
  9 10  1  0
 10 11  1  0
 11 12  2  0
  9 13  1  0
 13 14  1  0
 14 15  2  0
 15 16  1  0
 16 17  2  0
 17 18  1  0
 16 19  1  0
 14 20  1  0
 20 21  1  0
 21 22  2  0
 22 23  1  0
 23 24  2  0
 24 25  1  0
 25 26  2  0
 25 27  1  0
  1 28  2  0
  1 29  1  0
 29 30  1  0
 30 31  1  0
 31 32  1  0
 32 33  2  0
 32 34  1  0
 35 34  1  1
 35 36  1  0
 36 37  1  0
 37 38  1  0
 38 39  1  0
 35 40  1  0
 35 41  1  0
 41 42  2  0
 41 43  1  0
 43 44  1  0
 44 45  1  0
 45 46  1  0
 46 47  1  0
 47 48  1  0
 48 49  1  0
 49 50  2  3
 49 51  1  0
 44 52  1  0
 52 53  2  0
 52 54  1  0
 54 55  1  0
 55 56  1  0
 56 57  1  0
 57 58  1  0
 58 59  1  0
 59 60  1  0
 60 61  2  3
 60 62  1  0
 55 63  1  0
 63 64  2  0
 63 65  1  0
 65 66  1  0
 66 67  1  0
 66 68  1  0
 68 69  2  0
 68 70  1  0
 70 71  1  0
 71 72  1  0
 72 73  1  0
 73 74  1  0
 74 75  1  0
 71 76  1  0
 76 77  1  0
 77 78  1  0
 78 79  1  0
 71 80  1  0
 80 81  2  0
 80 82  1  0
 82 83  1  0
 83 84  1  0
 84 85  1  0
 85 86  1  0
 86 87  1  0
 87 88  1  0
 88 89  2  3
 88 90  1  0
 83 91  1  0
 91 92  2  0
 91 93  1  0
 93 94  1  0
 94 95  1  0
 95 96  1  0
 96 97  1  0
 97 98  1  0
 98 99  1  0
 99100  2  3
 99101  1  0
 94102  1  0
102103  2  0
102104  1  0
104105  1  0
105106  1  0
106107  1  0
107108  1  0
108109  1  0
109110  1  0
110111  2  3
110112  1  0
105113  1  0
113114  2  0
113115  1  0
115116  1  0
116117  1  0
117118  1  0
118119  2  0
119120  1  0
120121  1  0
121122  2  0
122123  1  0
123124  2  0
124125  1  0
125126  2  0
116127  1  0
127128  2  0
127129  1  0
129130  1  0
130131  1  0
131132  1  0
132133  1  0
133134  1  0
134135  1  0
135136  2  3
135137  1  0
130138  1  0
138139  2  0
138140  1  0
140141  1  0
141142  1  0
142143  1  0
143144  1  0
144145  1  0
145146  1  0
146147  2  3
146148  1  0
141149  1  0
149150  2  0
149151  1  0
151152  1  0
152153  1  0
153154  1  0
154155  1  0
155156  1  0
156157  1  0
157158  1  0
158159  1  0
152160  1  0
152161  1  1
161162  2  0
161163  1  0
  8  3  1  0
126118  1  0
 11  6  1  0
126121  1  0
 18 13  2  0
 39 75  2  0
 22  9  1  0
 79159  2  0
 26 21  1  0
  2164  1  0
  4165  1  0
  5166  1  0
  8167  1  0
 15168  1  0
 17169  1  0
 18170  1  0
 19171  1  0
 23172  1  0
 24173  1  0
 26174  1  0
 27175  1  0
 29176  1  0
 30177  1  0
 30178  1  0
 31179  1  0
 31180  1  0
 34181  1  0
 36182  1  0
 36183  1  0
 37184  1  0
 37185  1  0
 38186  1  0
 38187  1  0
 39188  1  0
 40189  1  0
 40190  1  0
 40191  1  0
 43192  1  0
 44193  1  6
 45194  1  0
 45195  1  0
 46196  1  0
 46197  1  0
 47198  1  0
 47199  1  0
 48200  1  0
 50201  1  0
 50202  1  0
 51203  1  0
 51204  1  0
 54205  1  0
 55206  1  6
 56207  1  0
 56208  1  0
 57209  1  0
 57210  1  0
 58211  1  0
 58212  1  0
 59213  1  0
 61214  1  0
 61215  1  0
 62216  1  0
 62217  1  0
 65218  1  0
 66219  1  6
 67220  1  0
 67221  1  0
 67222  1  0
 70223  1  0
 72224  1  0
 72225  1  0
 73226  1  0
 73227  1  0
 74228  1  0
 74229  1  0
 75230  1  0
 76231  1  0
 76232  1  0
 77233  1  0
 77234  1  0
 78235  1  0
 78236  1  0
 79237  1  0
 82238  1  0
 83239  1  6
 84240  1  0
 84241  1  0
 85242  1  0
 85243  1  0
 86244  1  0
 86245  1  0
 87246  1  0
 89247  1  0
 89248  1  0
 90249  1  0
 90250  1  0
 93251  1  0
 94252  1  6
 95253  1  0
 95254  1  0
 96255  1  0
 96256  1  0
 97257  1  0
 97258  1  0
 98259  1  0
100260  1  0
100261  1  0
101262  1  0
101263  1  0
104264  1  0
105265  1  6
106266  1  0
106267  1  0
107268  1  0
107269  1  0
108270  1  0
108271  1  0
109272  1  0
111273  1  0
111274  1  0
112275  1  0
112276  1  0
115277  1  0
116278  1  6
117279  1  0
117280  1  0
119281  1  0
120282  1  0
122283  1  0
123284  1  0
124285  1  0
125286  1  0
129287  1  0
130288  1  6
131289  1  0
131290  1  0
132291  1  0
132292  1  0
133293  1  0
133294  1  0
134295  1  0
136296  1  0
136297  1  0
137298  1  0
137299  1  0
140300  1  0
141301  1  6
142302  1  0
142303  1  0
143304  1  0
143305  1  0
144306  1  0
144307  1  0
145308  1  0
147309  1  0
147310  1  0
148311  1  0
148312  1  0
151313  1  0
153314  1  0
153315  1  0
154316  1  0
154317  1  0
155318  1  0
155319  1  0
156320  1  0
156321  1  0
157322  1  0
157323  1  0
158324  1  0
158325  1  0
159326  1  0
160327  1  0
160328  1  0
160329  1  0
M  CHG  8  50   1  61   1  89   1 100   1 111   1 136   1 147   1 163  -1
M  END
