
     RDKit          2D

312320  0  0  0  0  0  0  0  0999 V2000
   15.0533   -3.2522    0.0000 C   0  0  0  0  0  0  0  0  0  0  0  0
   16.3453   -4.0142    0.0000 N   0  0  0  0  0  0  0  0  0  0  0  0
   16.3314   -5.5142    0.0000 C   0  0  0  0  0  0  0  0  0  0  0  0
   15.0255   -6.2521    0.0000 C   0  0  0  0  0  0  0  0  0  0  0  0
   15.0115   -7.7520    0.0000 C   0  0  0  0  0  0  0  0  0  0  0  0
   16.3036   -8.5140    0.0000 C   0  0  0  0  0  0  0  0  0  0  0  0
   17.6095   -7.7761    0.0000 C   0  0  0  0  0  0  0  0  0  0  0  0
   17.6234   -6.2762    0.0000 C   0  0  0  0  0  0  0  0  0  0  0  0
   18.7149   -8.7901    0.0000 C   0  0  0  0  0  0  0  0  0  0  0  0
   18.0921  -10.1547    0.0000 O   0  0  0  0  0  0  0  0  0  0  0  0
   16.6018   -9.9841    0.0000 C   0  0  0  0  0  0  0  0  0  0  0  0
   15.5878  -11.0895    0.0000 O   0  0  0  0  0  0  0  0  0  0  0  0
   19.7082   -9.9141    0.0000 C   0  0  0  0  0  0  0  0  0  0  0  0
   21.1782   -9.6159    0.0000 C   0  0  0  0  0  0  0  0  0  0  0  0
   22.1715  -10.7398    0.0000 C   0  0  0  0  0  0  0  0  0  0  0  0
   21.6948  -12.1621    0.0000 C   0  0  0  0  0  0  0  0  0  0  0  0
   20.2248  -12.4603    0.0000 C   0  0  0  0  0  0  0  0  0  0  0  0
   19.2314  -11.3363    0.0000 C   0  0  0  0  0  0  0  0  0  0  0  0
   22.6881  -13.2860    0.0000 O   0  0  0  0  0  0  0  0  0  0  0  0
   21.6550   -8.1936    0.0000 O   0  0  0  0  0  0  0  0  0  0  0  0
   20.6617   -7.0696    0.0000 C   0  0  0  0  0  0  0  0  0  0  0  0
   19.1916   -7.3679    0.0000 C   0  0  0  0  0  0  0  0  0  0  0  0
   18.8843   -6.1047    0.0000 C   0  0  0  0  0  0  0  0  0  0  0  0
   19.1386   -5.3462    0.0000 C   0  0  0  0  0  0  0  0  0  0  0  0
   19.9226   -5.1872    0.0000 C   0  0  0  0  0  0  0  0  0  0  0  0
   20.4524   -5.7866    0.0000 C   0  0  0  0  0  0  0  0  0  0  0  0
   20.6218   -3.1012    0.0000 O   0  0  0  0  0  0  0  0  0  0  0  0
   13.7473   -3.9901    0.0000 S   0  0  0  0  0  0  0  0  0  0  0  0
   15.0672   -1.7523    0.0000 N   0  0  0  0  0  0  0  0  0  0  0  0
   13.7752   -0.9903    0.0000 C   0  0  0  0  0  0  0  0  0  0  0  0
   13.7891    0.5097    0.0000 C   0  0  0  0  0  0  0  0  0  0  0  0
   12.4971    1.2717    0.0000 C   0  0  0  0  0  0  0  0  0  0  0  0
   11.5424    0.1147    0.0000 O   0  0  0  0  0  0  0  0  0  0  0  0
   12.5110    2.7716    0.0000 N   0  0  0  0  0  0  0  0  0  0  0  0
   11.2190    3.5336    0.0000 C   0  0  0  0  0  0  0  0  0  0  0  0
   11.0558    2.0425    0.0000 C   0  0  0  0  0  0  0  0  0  0  0  0
   10.4603    0.6658    0.0000 C   0  0  0  0  0  0  0  0  0  0  0  0
    9.4855   -0.4743    0.0000 C   0  0  0  0  0  0  0  0  0  0  0  0
    8.2180   -1.2764    0.0000 C   0  0  0  0  0  0  0  0  0  0  0  0
   12.4449    4.3979    0.0000 C   0  0  0  0  0  0  0  0  0  0  0  0
   10.9354    5.0066    0.0000 C   0  0  0  0  0  0  0  0  0  0  0  0
   12.3496    5.5065    0.0000 O   0  0  0  0  0  0  0  0  0  0  0  0
   10.2303    6.3305    0.0000 N   0  0  0  0  0  0  0  0  0  0  0  0
    9.1662    7.3878    0.0000 C   0  0  0  0  0  0  0  0  0  0  0  0
    9.2549    8.8852    0.0000 C   0  0  0  0  0  0  0  0  0  0  0  0
   10.5960    9.5571    0.0000 C   0  0  0  0  0  0  0  0  0  0  0  0
   10.6846   11.0545    0.0000 C   0  0  0  0  0  0  0  0  0  0  0  0
   12.0257   11.7264    0.0000 C   0  0  0  0  0  0  0  0  0  0  0  0
   12.1144   13.2237    0.0000 N   0  0  0  0  0  0  0  0  0  0  0  0
    7.8378    8.0845    0.0000 C   0  0  0  0  0  0  0  0  0  0  0  0
    8.3287    9.5019    0.0000 O   0  0  0  0  0  0  0  0  0  0  0  0
    6.3631    8.3586    0.0000 N   0  0  0  0  0  0  0  0  0  0  0  0
    4.8731    8.1859    0.0000 C   0  0  0  0  0  0  0  0  0  0  0  0
    3.7576    9.1888    0.0000 C   0  0  0  0  0  0  0  0  0  0  0  0
    4.2450   10.6074    0.0000 C   0  0  0  0  0  0  0  0  0  0  0  0
    2.3665    9.7498    0.0000 C   0  0  0  0  0  0  0  0  0  0  0  0
    2.3393   11.2495    0.0000 C   0  0  0  0  0  0  0  0  0  0  0  0
    3.5001    7.5817    0.0000 C   0  0  0  0  0  0  0  0  0  0  0  0
    2.5495    8.7420    0.0000 O   0  0  0  0  0  0  0  0  0  0  0  0
    2.3663    6.5996    0.0000 N   0  0  0  0  0  0  0  0  0  0  0  0
    1.5723    5.3270    0.0000 C   0  0  0  0  0  0  0  0  0  0  0  0
    0.0927    5.0803    0.0000 C   0  0  0  0  0  0  0  0  0  0  0  0
   -0.8607    6.2382    0.0000 C   0  0  0  0  0  0  0  0  0  0  0  0
   -2.3580    6.1475    0.0000 C   0  0  0  0  0  0  0  0  0  0  0  0
   -2.9070    7.5434    0.0000 N   0  0  0  0  0  0  0  0  0  0  0  0
   -1.7490    8.4969    0.0000 C   0  0  0  0  0  0  0  0  0  0  0  0
   -1.6828    9.9954    0.0000 C   0  0  0  0  0  0  0  0  0  0  0  0
   -0.3519   10.6873    0.0000 C   0  0  0  0  0  0  0  0  0  0  0  0
    0.9128    9.8807    0.0000 C   0  0  0  0  0  0  0  0  0  0  0  0
    0.8465    8.3821    0.0000 C   0  0  0  0  0  0  0  0  0  0  0  0
   -0.4844    7.6902    0.0000 C   0  0  0  0  0  0  0  0  0  0  0  0
    1.1887    3.8769    0.0000 C   0  0  0  0  0  0  0  0  0  0  0  0
    0.4013    4.2825    0.0000 O   0  0  0  0  0  0  0  0  0  0  0  0
    1.2496    2.3781    0.0000 N   0  0  0  0  0  0  0  0  0  0  0  0
    1.7495    0.9639    0.0000 C   0  0  0  0  0  0  0  0  0  0  0  0
    2.6441   -0.2401    0.0000 C   0  0  0  0  0  0  0  0  0  0  0  0
    3.8538   -1.1270    0.0000 C   0  0  0  0  0  0  0  0  0  0  0  0
    5.2712   -1.6179    0.0000 C   0  0  0  0  0  0  0  0  0  0  0  0
    6.7703   -1.6692    0.0000 C   0  0  0  0  0  0  0  0  0  0  0  0
    1.6567   -0.6273    0.0000 C   0  0  0  0  0  0  0  0  0  0  0  0
    1.9333   -1.9659    0.0000 C   0  0  0  0  0  0  0  0  0  0  0  0
    1.9516   -3.3327    0.0000 C   0  0  0  0  0  0  0  0  0  0  0  0
    1.7109   -4.6782    0.0000 C   0  0  0  0  0  0  0  0  0  0  0  0
    0.3773    1.7748    0.0000 C   0  0  0  0  0  0  0  0  0  0  0  0
    2.0883    3.1578    0.0000 O   0  0  0  0  0  0  0  0  0  0  0  0
   -0.5791    2.7513    0.0000 N   0  0  0  0  0  0  0  0  0  0  0  0
   -1.7031    3.5292    0.0000 C   0  0  0  0  0  0  0  0  0  0  0  0
   -1.4289    5.6386    0.0000 C   0  0  0  0  0  0  0  0  0  0  0  0
   -2.7605    6.3292    0.0000 C   0  0  0  0  0  0  0  0  0  0  0  0
   -2.8281    7.8277    0.0000 C   0  0  0  0  0  0  0  0  0  0  0  0
   -3.9530    8.8200    0.0000 N   0  0  0  0  0  0  0  0  0  0  0  0
   -1.7973    8.9173    0.0000 O   0  0  0  0  0  0  0  0  0  0  0  0
   -2.9540    4.0804    0.0000 C   0  0  0  0  0  0  0  0  0  0  0  0
   -2.9862    6.2235    0.0000 O   0  0  0  0  0  0  0  0  0  0  0  0
   -4.2866    4.3848    0.0000 N   0  0  0  0  0  0  0  0  0  0  0  0
   -5.6527    4.4316    0.0000 C   0  0  0  0  0  0  0  0  0  0  0  0
   -6.5624    6.3543    0.0000 C   0  0  0  0  0  0  0  0  0  0  0  0
   -5.9359    7.7172    0.0000 C   0  0  0  0  0  0  0  0  0  0  0  0
   -6.8030    8.9412    0.0000 N   0  0  0  0  0  0  0  0  0  0  0  0
   -4.5203    8.2134    0.0000 O   0  0  0  0  0  0  0  0  0  0  0  0
   -7.0030    4.2190    0.0000 C   0  0  0  0  0  0  0  0  0  0  0  0
   -7.7245    6.2935    0.0000 O   0  0  0  0  0  0  0  0  0  0  0  0
   -8.2886    3.7546    0.0000 N   0  0  0  0  0  0  0  0  0  0  0  0
   -9.4631    3.0554    0.0000 C   0  0  0  0  0  0  0  0  0  0  0  0
  -11.2679    4.1810    0.0000 C   0  0  0  0  0  0  0  0  0  0  0  0
  -11.4777    5.6663    0.0000 C   0  0  0  0  0  0  0  0  0  0  0  0
  -12.8689    6.2272    0.0000 C   0  0  0  0  0  0  0  0  0  0  0  0
  -13.0787    7.7125    0.0000 N   0  0  0  0  0  0  0  0  0  0  0  0
  -14.4699    8.2734    0.0000 C   0  0  0  0  0  0  0  0  0  0  0  0
  -14.6797    9.7587    0.0000 N   0  0  0  0  0  0  0  0  0  0  0  0
  -15.6512    7.3491    0.0000 N   0  0  0  0  0  0  0  0  0  0  0  0
  -10.4841    2.1465    0.0000 C   0  0  0  0  0  0  0  0  0  0  0  0
  -12.2127    3.5016    0.0000 O   0  0  0  0  0  0  0  0  0  0  0  0
  -11.3146    1.0608    0.0000 N   0  0  0  0  0  0  0  0  0  0  0  0
  -11.9247   -0.1625    0.0000 C   0  0  0  0  0  0  0  0  0  0  0  0
  -14.0515   -0.1913    0.0000 C   0  0  0  0  0  0  0  0  0  0  0  0
  -15.0310    0.9448    0.0000 C   0  0  0  0  0  0  0  0  0  0  0  0
  -16.5046    0.6646    0.0000 C   0  0  0  0  0  0  0  0  0  0  0  0
  -17.4841    1.8006    0.0000 N   0  0  0  0  0  0  0  0  0  0  0  0
  -18.9577    1.5204    0.0000 C   0  0  0  0  0  0  0  0  0  0  0  0
  -19.9372    2.6564    0.0000 N   0  0  0  0  0  0  0  0  0  0  0  0
  -19.4518    0.1041    0.0000 N   0  0  0  0  0  0  0  0  0  0  0  0
  -12.2922   -1.4791    0.0000 C   0  0  0  0  0  0  0  0  0  0  0  0
  -14.4790   -1.2736    0.0000 O   0  0  0  0  0  0  0  0  0  0  0  0
  -12.4039   -2.8414    0.0000 N   0  0  0  0  0  0  0  0  0  0  0  0
  -12.2557   -4.2003    0.0000 C   0  0  0  0  0  0  0  0  0  0  0  0
  -14.0294   -5.3744    0.0000 C   0  0  0  0  0  0  0  0  0  0  0  0
  -15.4676   -4.9482    0.0000 C   0  0  0  0  0  0  0  0  0  0  0  0
  -16.5558   -5.9806    0.0000 C   0  0  0  0  0  0  0  0  0  0  0  0
  -17.9939   -5.5545    0.0000 C   0  0  0  0  0  0  0  0  0  0  0  0
  -11.8531   -5.5066    0.0000 C   0  0  0  0  0  0  0  0  0  0  0  0
  -13.8038   -6.5160    0.0000 O   0  0  0  0  0  0  0  0  0  0  0  0
  -11.2105   -6.7130    0.0000 N   0  0  0  0  0  0  0  0  0  0  0  0
  -10.3512   -7.7761    0.0000 C   0  0  0  0  0  0  0  0  0  0  0  0
  -11.2086   -9.7227    0.0000 C   0  0  0  0  0  0  0  0  0  0  0  0
  -12.6489  -10.1418    0.0000 C   0  0  0  0  0  0  0  0  0  0  0  0
  -13.0061  -11.5986    0.0000 C   0  0  0  0  0  0  0  0  0  0  0  0
  -14.4464  -12.0176    0.0000 C   0  0  0  0  0  0  0  0  0  0  0  0
  -14.8036  -13.4745    0.0000 N   0  0  0  0  0  0  0  0  0  0  0  0
   -9.3063   -8.6573    0.0000 C   0  0  0  0  0  0  0  0  0  0  0  0
  -10.4016  -10.5612    0.0000 O   0  0  0  0  0  0  0  0  0  0  0  0
   -8.1135   -9.3249    0.0000 N   0  0  0  0  0  0  0  0  0  0  0  0
   -6.8158   -9.7546    0.0000 C   0  0  0  0  0  0  0  0  0  0  0  0
   -5.4604   -9.9310    0.0000 C   0  0  0  0  0  0  0  0  0  0  0  0
   -4.0960   -9.8477    0.0000 C   0  0  0  0  0  0  0  0  0  0  0  0
   -2.7720   -9.5077    0.0000 C   0  0  0  0  0  0  0  0  0  0  0  0
   -1.5363   -8.9232    0.0000 C   0  0  0  0  0  0  0  0  0  0  0  0
   -0.4336   -8.1155    0.0000 C   0  0  0  0  0  0  0  0  0  0  0  0
    0.4964   -7.1137    0.0000 C   0  0  0  0  0  0  0  0  0  0  0  0
    1.2199   -5.9539    0.0000 C   0  0  0  0  0  0  0  0  0  0  0  0
   -8.0266  -11.5035    0.0000 C   0  0  0  0  0  0  0  0  0  0  0  0
   -6.4847  -11.8557    0.0000 C   0  0  0  0  0  0  0  0  0  0  0  0
   -7.3245  -13.0986    0.0000 O   0  0  0  0  0  0  0  0  0  0  0  0
   -5.1258  -12.4909    0.0000 O   0  0  0  0  0  0  0  0  0  0  0  0
   17.5516   -3.1226    0.0000 H   0  0  0  0  0  0  0  0  0  0  0  0
   13.7334   -5.4901    0.0000 H   0  0  0  0  0  0  0  0  0  0  0  0
   13.7056   -8.4899    0.0000 H   0  0  0  0  0  0  0  0  0  0  0  0
   18.7120   -5.2442    0.0000 H   0  0  0  0  0  0  0  0  0  0  0  0
   23.6416  -10.4416    0.0000 H   0  0  0  0  0  0  0  0  0  0  0  0
   19.7480  -13.8825    0.0000 H   0  0  0  0  0  0  0  0  0  0  0  0
   17.7614  -11.6346    0.0000 H   0  0  0  0  0  0  0  0  0  0  0  0
   22.2114  -14.7083    0.0000 H   0  0  0  0  0  0  0  0  0  0  0  0
   16.7282   -6.5422    0.0000 H   0  0  0  0  0  0  0  0  0  0  0  0
   17.8261   -3.5850    0.0000 H   0  0  0  0  0  0  0  0  0  0  0  0
   22.6084   -5.3492    0.0000 H   0  0  0  0  0  0  0  0  0  0  0  0
   22.0919   -2.8030    0.0000 H   0  0  0  0  0  0  0  0  0  0  0  0
   16.3731   -1.0144    0.0000 H   0  0  0  0  0  0  0  0  0  0  0  0
   13.2491   -2.3950    0.0000 H   0  0  0  0  0  0  0  0  0  0  0  0
   12.3004   -0.7161    0.0000 H   0  0  0  0  0  0  0  0  0  0  0  0
   15.2638    0.2355    0.0000 H   0  0  0  0  0  0  0  0  0  0  0  0
   14.3152    1.9144    0.0000 H   0  0  0  0  0  0  0  0  0  0  0  0
   13.8971    3.3448    0.0000 H   0  0  0  0  0  0  0  0  0  0  0  0
   12.5520    2.1481    0.0000 H   0  0  0  0  0  0  0  0  0  0  0  0
   11.9231    0.8187    0.0000 H   0  0  0  0  0  0  0  0  0  0  0  0
   11.7955   -0.0177    0.0000 H   0  0  0  0  0  0  0  0  0  0  0  0
   11.2593   -0.6037    0.0000 H   0  0  0  0  0  0  0  0  0  0  0  0
   10.8637   -1.0663    0.0000 H   0  0  0  0  0  0  0  0  0  0  0  0
    9.6953   -1.9595    0.0000 H   0  0  0  0  0  0  0  0  0  0  0  0
    8.8222   -2.6493    0.0000 H   0  0  0  0  0  0  0  0  0  0  0  0
   13.8730    3.9390    0.0000 H   0  0  0  0  0  0  0  0  0  0  0  0
   13.3014    5.6294    0.0000 H   0  0  0  0  0  0  0  0  0  0  0  0
   11.6683    5.6812    0.0000 H   0  0  0  0  0  0  0  0  0  0  0  0
   11.4343    7.2251    0.0000 H   0  0  0  0  0  0  0  0  0  0  0  0
   10.6223    7.7480    0.0000 H   0  0  0  0  0  0  0  0  0  0  0  0
    8.6540   10.2596    0.0000 H   0  0  0  0  0  0  0  0  0  0  0  0
    7.7673    9.0781    0.0000 H   0  0  0  0  0  0  0  0  0  0  0  0
   12.0959    9.5469    0.0000 H   0  0  0  0  0  0  0  0  0  0  0  0
   11.1968    8.1827    0.0000 H   0  0  0  0  0  0  0  0  0  0  0  0
   10.0838   12.4289    0.0000 H   0  0  0  0  0  0  0  0  0  0  0  0
    9.1847   11.0647    0.0000 H   0  0  0  0  0  0  0  0  0  0  0  0
   13.5158   11.8991    0.0000 H   0  0  0  0  0  0  0  0  0  0  0  0
   12.6266   10.3519    0.0000 H   0  0  0  0  0  0  0  0  0  0  0  0
   13.4555   13.8956    0.0000 H   0  0  0  0  0  0  0  0  0  0  0  0
   11.6856   14.6611    0.0000 H   0  0  0  0  0  0  0  0  0  0  0  0
   10.6144   13.2339    0.0000 H   0  0  0  0  0  0  0  0  0  0  0  0
    6.4144    9.8577    0.0000 H   0  0  0  0  0  0  0  0  0  0  0  0
    5.4993    9.5489    0.0000 H   0  0  0  0  0  0  0  0  0  0  0  0
    2.6793    8.1462    0.0000 H   0  0  0  0  0  0  0  0  0  0  0  0
    3.0909   11.8088    0.0000 H   0  0  0  0  0  0  0  0  0  0  0  0
    4.8625   11.9289    0.0000 H   0  0  0  0  0  0  0  0  0  0  0  0
    5.5177   10.2691    0.0000 H   0  0  0  0  0  0  0  0  0  0  0  0
    0.9243   10.1623    0.0000 H   0  0  0  0  0  0  0  0  0  0  0  0
    2.0556    8.2823    0.0000 H   0  0  0  0  0  0  0  0  0  0  0  0
    0.7655   11.7960    0.0000 H   0  0  0  0  0  0  0  0  0  0  0  0
    2.4675   12.7025    0.0000 H   0  0  0  0  0  0  0  0  0  0  0  0
    3.6237   11.5480    0.0000 H   0  0  0  0  0  0  0  0  0  0  0  0
    1.3536    7.7061    0.0000 H   0  0  0  0  0  0  0  0  0  0  0  0
    0.7389    6.5742    0.0000 H   0  0  0  0  0  0  0  0  0  0  0  0
   -1.3529    4.6803    0.0000 H   0  0  0  0  0  0  0  0  0  0  0  0
    0.0525    3.5808    0.0000 H   0  0  0  0  0  0  0  0  0  0  0  0
   -3.3128    4.9906    0.0000 H   0  0  0  0  0  0  0  0  0  0  0  0
   -4.3590    7.9198    0.0000 H   0  0  0  0  0  0  0  0  0  0  0  0
   -2.9474   10.8021    0.0000 H   0  0  0  0  0  0  0  0  0  0  0  0
   -0.2856   12.1858    0.0000 H   0  0  0  0  0  0  0  0  0  0  0  0
    2.1494   10.7296    0.0000 H   0  0  0  0  0  0  0  0  0  0  0  0
    2.1112    7.5755    0.0000 H   0  0  0  0  0  0  0  0  0  0  0  0
   -0.2234    2.0946    0.0000 H   0  0  0  0  0  0  0  0  0  0  0  0
    2.5144   -1.7345    0.0000 H   0  0  0  0  0  0  0  0  0  0  0  0
    1.1787   -0.5604    0.0000 H   0  0  0  0  0  0  0  0  0  0  0  0
    4.1704   -2.5932    0.0000 H   0  0  0  0  0  0  0  0  0  0  0  0
    2.8992   -2.2840    0.0000 H   0  0  0  0  0  0  0  0  0  0  0  0
    5.8410   -3.0055    0.0000 H   0  0  0  0  0  0  0  0  0  0  0  0
    4.7000   -3.0049    0.0000 H   0  0  0  0  0  0  0  0  0  0  0  0
    6.9430   -3.1593    0.0000 H   0  0  0  0  0  0  0  0  0  0  0  0
    3.3107    0.7101    0.0000 H   0  0  0  0  0  0  0  0  0  0  0  0
    3.7194   -0.9754    0.0000 H   0  0  0  0  0  0  0  0  0  0  0  0
    4.0634   -1.4506    0.0000 H   0  0  0  0  0  0  0  0  0  0  0  0
    3.8929   -2.6981    0.0000 H   0  0  0  0  0  0  0  0  0  0  0  0
    4.1407   -3.2298    0.0000 H   0  0  0  0  0  0  0  0  0  0  0  0
    3.8550   -4.2822    0.0000 H   0  0  0  0  0  0  0  0  0  0  0  0
    3.8299   -5.2697    0.0000 H   0  0  0  0  0  0  0  0  0  0  0  0
    0.6922    4.5425    0.0000 H   0  0  0  0  0  0  0  0  0  0  0  0
   -0.2634    5.1622    0.0000 H   0  0  0  0  0  0  0  0  0  0  0  0
   -1.3396    7.1359    0.0000 H   0  0  0  0  0  0  0  0  0  0  0  0
    0.0239    5.2651    0.0000 H   0  0  0  0  0  0  0  0  0  0  0  0
   -4.1569    6.8770    0.0000 H   0  0  0  0  0  0  0  0  0  0  0  0
   -3.6926    5.1540    0.0000 H   0  0  0  0  0  0  0  0  0  0  0  0
   -4.2273   10.0168    0.0000 H   0  0  0  0  0  0  0  0  0  0  0  0
   -5.6483    8.0993    0.0000 H   0  0  0  0  0  0  0  0  0  0  0  0
   -4.1854    6.5789    0.0000 H   0  0  0  0  0  0  0  0  0  0  0  0
   -5.1499    6.5276    0.0000 H   0  0  0  0  0  0  0  0  0  0  0  0
   -7.6826    7.3519    0.0000 H   0  0  0  0  0  0  0  0  0  0  0  0
   -7.8440    5.5748    0.0000 H   0  0  0  0  0  0  0  0  0  0  0  0
   -6.1765   10.3041    0.0000 H   0  0  0  0  0  0  0  0  0  0  0  0
   -8.2965    8.8023    0.0000 H   0  0  0  0  0  0  0  0  0  0  0  0
   -9.0592    5.8115    0.0000 H   0  0  0  0  0  0  0  0  0  0  0  0
   -9.8088    5.1185    0.0000 H   0  0  0  0  0  0  0  0  0  0  0  0
  -12.7671    4.2323    0.0000 H   0  0  0  0  0  0  0  0  0  0  0  0
  -11.9246    2.8324    0.0000 H   0  0  0  0  0  0  0  0  0  0  0  0
  -11.1669    7.1337    0.0000 H   0  0  0  0  0  0  0  0  0  0  0  0
  -10.0108    5.9793    0.0000 H   0  0  0  0  0  0  0  0  0  0  0  0
  -14.3680    6.2785    0.0000 H   0  0  0  0  0  0  0  0  0  0  0  0
  -13.3563    4.8086    0.0000 H   0  0  0  0  0  0  0  0  0  0  0  0
  -11.8973    8.6368    0.0000 H   0  0  0  0  0  0  0  0  0  0  0  0
  -16.0708   10.3196    0.0000 H   0  0  0  0  0  0  0  0  0  0  0  0
  -13.4983   10.6830    0.0000 H   0  0  0  0  0  0  0  0  0  0  0  0
  -17.0424    7.9100    0.0000 H   0  0  0  0  0  0  0  0  0  0  0  0
  -15.4414    5.8638    0.0000 H   0  0  0  0  0  0  0  0  0  0  0  0
  -13.0749    2.3745    0.0000 H   0  0  0  0  0  0  0  0  0  0  0  0
  -13.3309    1.3863    0.0000 H   0  0  0  0  0  0  0  0  0  0  0  0
  -15.3404   -0.9586    0.0000 H   0  0  0  0  0  0  0  0  0  0  0  0
  -13.8749   -1.6808    0.0000 H   0  0  0  0  0  0  0  0  0  0  0  0
  -15.5629    2.3473    0.0000 H   0  0  0  0  0  0  0  0  0  0  0  0
  -13.9661    2.0012    0.0000 H   0  0  0  0  0  0  0  0  0  0  0  0
  -17.7935   -0.1028    0.0000 H   0  0  0  0  0  0  0  0  0  0  0  0
  -16.1477   -0.7923    0.0000 H   0  0  0  0  0  0  0  0  0  0  0  0
  -16.9900    3.2169    0.0000 H   0  0  0  0  0  0  0  0  0  0  0  0
  -21.4108    2.3762    0.0000 H   0  0  0  0  0  0  0  0  0  0  0  0
  -19.4431    4.0727    0.0000 H   0  0  0  0  0  0  0  0  0  0  0  0
  -20.9254   -0.1761    0.0000 H   0  0  0  0  0  0  0  0  0  0  0  0
  -18.4723   -1.0319    0.0000 H   0  0  0  0  0  0  0  0  0  0  0  0
  -14.5949   -2.6879    0.0000 H   0  0  0  0  0  0  0  0  0  0  0  0
  -14.2760   -3.6576    0.0000 H   0  0  0  0  0  0  0  0  0  0  0  0
  -14.6988   -6.7167    0.0000 H   0  0  0  0  0  0  0  0  0  0  0  0
  -13.0755   -6.5319    0.0000 H   0  0  0  0  0  0  0  0  0  0  0  0
  -16.5555   -3.9155    0.0000 H   0  0  0  0  0  0  0  0  0  0  0  0
  -15.1429   -3.4838    0.0000 H   0  0  0  0  0  0  0  0  0  0  0  0
  -17.2252   -7.3230    0.0000 H   0  0  0  0  0  0  0  0  0  0  0  0
  -15.4678   -7.0133    0.0000 H   0  0  0  0  0  0  0  0  0  0  0  0
  -19.0821   -6.5869    0.0000 H   0  0  0  0  0  0  0  0  0  0  0  0
  -19.1996   -4.6621    0.0000 H   0  0  0  0  0  0  0  0  0  0  0  0
  -17.4931   -4.1405    0.0000 H   0  0  0  0  0  0  0  0  0  0  0  0
  -13.1368   -7.7685    0.0000 H   0  0  0  0  0  0  0  0  0  0  0  0
  -12.3442   -8.4118    0.0000 H   0  0  0  0  0  0  0  0  0  0  0  0
  -11.0460  -11.2139    0.0000 H   0  0  0  0  0  0  0  0  0  0  0  0
   -9.7802  -10.1808    0.0000 H   0  0  0  0  0  0  0  0  0  0  0  0
  -14.1224   -9.8612    0.0000 H   0  0  0  0  0  0  0  0  0  0  0  0
  -13.1674   -8.7342    0.0000 H   0  0  0  0  0  0  0  0  0  0  0  0
  -12.6630  -13.0588    0.0000 H   0  0  0  0  0  0  0  0  0  0  0  0
  -11.5326  -11.8791    0.0000 H   0  0  0  0  0  0  0  0  0  0  0  0
  -15.9431  -11.9188    0.0000 H   0  0  0  0  0  0  0  0  0  0  0  0
  -14.7895  -10.5574    0.0000 H   0  0  0  0  0  0  0  0  0  0  0  0
  -16.2439  -13.8935    0.0000 H   0  0  0  0  0  0  0  0  0  0  0  0
  -14.6411  -14.9656    0.0000 H   0  0  0  0  0  0  0  0  0  0  0  0
  -13.3301  -13.7550    0.0000 H   0  0  0  0  0  0  0  0  0  0  0  0
   -9.1633  -11.2542    0.0000 H   0  0  0  0  0  0  0  0  0  0  0  0
   -4.7375  -11.9315    0.0000 H   0  0  0  0  0  0  0  0  0  0  0  0
   -5.9918  -12.0421    0.0000 H   0  0  0  0  0  0  0  0  0  0  0  0
   -3.1534  -11.7861    0.0000 H   0  0  0  0  0  0  0  0  0  0  0  0
   -4.2183  -12.0212    0.0000 H   0  0  0  0  0  0  0  0  0  0  0  0
   -1.4796  -11.2327    0.0000 H   0  0  0  0  0  0  0  0  0  0  0  0
   -2.6639  -11.6604    0.0000 H   0  0  0  0  0  0  0  0  0  0  0  0
    0.0592  -10.3725    0.0000 H   0  0  0  0  0  0  0  0  0  0  0  0
   -1.0227  -11.0166    0.0000 H   0  0  0  0  0  0  0  0  0  0  0  0
    1.4074   -9.2366    0.0000 H   0  0  0  0  0  0  0  0  0  0  0  0
    0.4669  -10.0739    0.0000 H   0  0  0  0  0  0  0  0  0  0  0  0
    2.5452   -7.6852    0.0000 H   0  0  0  0  0  0  0  0  0  0  0  0
    1.7512   -8.8662    0.0000 H   0  0  0  0  0  0  0  0  0  0  0  0
    3.1887   -6.9358    0.0000 H   0  0  0  0  0  0  0  0  0  0  0  0
   -7.8098  -12.9877    0.0000 H   0  0  0  0  0  0  0  0  0  0  0  0
   -9.2943  -12.3053    0.0000 H   0  0  0  0  0  0  0  0  0  0  0  0
   -9.1641  -10.5256    0.0000 H   0  0  0  0  0  0  0  0  0  0  0  0
  1  2  1  0
  2  3  1  0
  3  4  2  0
  4  5  1  0
  5  6  2  0
  6  7  1  0
  7  8  2  0
  7  9  1  0
  9 10  1  0
 10 11  1  0
 11 12  2  0
  9 13  1  0
 13 14  1  0
 14 15  2  0
 15 16  1  0
 16 17  2  0
 17 18  1  0
 16 19  1  0
 14 20  1  0
 20 21  1  0
 21 22  2  0
 22 23  1  0
 23 24  2  0
 24 25  1  0
 25 26  2  0
 25 27  1  0
  1 28  2  0
  1 29  1  0
 29 30  1  0
 30 31  1  0
 31 32  1  0
 32 33  2  0
 32 34  1  0
 35 34  1  1
 35 36  1  0
 36 37  1  0
 37 38  1  0
 38 39  1  0
 35 40  1  0
 35 41  1  0
 41 42  2  0
 41 43  1  0
 43 44  1  0
 44 45  1  0
 45 46  1  0
 46 47  1  0
 47 48  1  0
 48 49  1  0
 44 50  1  0
 50 51  2  0
 50 52  1  0
 52 53  1  0
 53 54  1  0
 54 55  1  0
 54 56  1  0
 56 57  1  0
 53 58  1  0
 58 59  2  0
 58 60  1  0
 60 61  1  0
 61 62  1  0
 62 63  1  0
 63 64  2  0
 64 65  1  0
 65 66  1  0
 66 67  2  0
 67 68  1  0
 68 69  2  0
 69 70  1  0
 70 71  2  0
 61 72  1  0
 72 73  2  0
 72 74  1  0
 74 75  1  0
 75 76  1  0
 76 77  1  0
 77 78  1  0
 78 79  1  0
 75 80  1  0
 80 81  1  0
 81 82  1  0
 82 83  1  0
 75 84  1  0
 84 85  2  0
 84 86  1  0
 86 87  1  0
 87 88  1  0
 88 89  1  0
 89 90  1  0
 90 91  1  0
 90 92  2  0
 87 93  1  0
 93 94  2  0
 93 95  1  0
 95 96  1  0
 96 97  1  0
 97 98  1  0
 98 99  1  0
 98100  2  0
 96101  1  0
101102  2  0
101103  1  0
103104  1  0
104105  1  0
105106  1  0
106107  1  0
107108  1  0
108109  1  0
109110  2  3
109111  1  0
104112  1  0
112113  2  0
112114  1  0
114115  1  0
115116  1  0
116117  1  0
117118  1  0
118119  1  0
119120  1  0
120121  2  3
120122  1  0
115123  1  0
123124  2  0
123125  1  0
125126  1  0
126127  1  0
127128  1  0
128129  1  0
129130  1  0
126131  1  0
131132  2  0
131133  1  0
133134  1  0
134135  1  0
135136  1  0
136137  1  0
137138  1  0
138139  1  0
134140  1  0
140141  2  0
140142  1  0
142143  1  0
143144  1  0
144145  1  0
145146  1  0
146147  1  0
147148  1  0
148149  1  0
149150  1  0
143151  1  0
143152  1  1
152153  2  0
152154  1  0
  8  3  1  0
 71 63  1  0
 11  6  1  0
 71 66  1  0
 18 13  2  0
 39 79  2  0
 22  9  1  0
 83150  2  0
 26 21  1  0
  2155  1  0
  4156  1  0
  5157  1  0
  8158  1  0
 15159  1  0
 17160  1  0
 18161  1  0
 19162  1  0
 23163  1  0
 24164  1  0
 26165  1  0
 27166  1  0
 29167  1  0
 30168  1  0
 30169  1  0
 31170  1  0
 31171  1  0
 34172  1  0
 36173  1  0
 36174  1  0
 37175  1  0
 37176  1  0
 38177  1  0
 38178  1  0
 39179  1  0
 40180  1  0
 40181  1  0
 40182  1  0
 43183  1  0
 44184  1  6
 45185  1  0
 45186  1  0
 46187  1  0
 46188  1  0
 47189  1  0
 47190  1  0
 48191  1  0
 48192  1  0
 49193  1  0
 49194  1  0
 49195  1  0
 52196  1  0
 53197  1  6
 54198  1  1
 55199  1  0
 55200  1  0
 55201  1  0
 56202  1  0
 56203  1  0
 57204  1  0
 57205  1  0
 57206  1  0
 60207  1  0
 61208  1  6
 62209  1  0
 62210  1  0
 64211  1  0
 65212  1  0
 67213  1  0
 68214  1  0
 69215  1  0
 70216  1  0
 74217  1  0
 76218  1  0
 76219  1  0
 77220  1  0
 77221  1  0
 78222  1  0
 78223  1  0
 79224  1  0
 80225  1  0
 80226  1  0
 81227  1  0
 81228  1  0
 82229  1  0
 82230  1  0
 83231  1  0
 86232  1  0
 87233  1  6
 88234  1  0
 88235  1  0
 89236  1  0
 89237  1  0
 91238  1  0
 91239  1  0
 95240  1  0
 96241  1  6
 97242  1  0
 97243  1  0
 99244  1  0
 99245  1  0
103246  1  0
104247  1  6
105248  1  0
105249  1  0
106250  1  0
106251  1  0
107252  1  0
107253  1  0
108254  1  0
110255  1  0
110256  1  0
111257  1  0
111258  1  0
114259  1  0
115260  1  6
116261  1  0
116262  1  0
117263  1  0
117264  1  0
118265  1  0
118266  1  0
119267  1  0
121268  1  0
121269  1  0
122270  1  0
122271  1  0
125272  1  0
126273  1  1
127274  1  0
127275  1  0
128276  1  0
128277  1  0
129278  1  0
129279  1  0
130280  1  0
130281  1  0
130282  1  0
133283  1  0
134284  1  6
135285  1  0
135286  1  0
136287  1  0
136288  1  0
137289  1  0
137290  1  0
138291  1  0
138292  1  0
139293  1  0
139294  1  0
139295  1  0
142296  1  0
144297  1  0
144298  1  0
145299  1  0
145300  1  0
146301  1  0
146302  1  0
147303  1  0
147304  1  0
148305  1  0
148306  1  0
149307  1  0
149308  1  0
150309  1  0
151310  1  0
151311  1  0
151312  1  0
M  CHG  5  49   1 110   1 121   1 139   1 154  -1
M  END
