
     RDKit          2D

329337  0  0  0  0  0  0  0  0999 V2000
   21.9797   -2.1683    0.0000 C   0  0  0  0  0  0  0  0  0  0  0  0
   23.0622   -1.1299    0.0000 N   0  0  0  0  0  0  0  0  0  0  0  0
   24.5027   -1.5482    0.0000 C   0  0  0  0  0  0  0  0  0  0  0  0
   24.8607   -3.0049    0.0000 C   0  0  0  0  0  0  0  0  0  0  0  0
   26.3012   -3.4231    0.0000 C   0  0  0  0  0  0  0  0  0  0  0  0
   27.3837   -2.3848    0.0000 C   0  0  0  0  0  0  0  0  0  0  0  0
   27.0257   -0.9281    0.0000 C   0  0  0  0  0  0  0  0  0  0  0  0
   25.5852   -0.5098    0.0000 C   0  0  0  0  0  0  0  0  0  0  0  0
   28.3004   -0.1375    0.0000 C   0  0  0  0  0  0  0  0  0  0  0  0
   29.4462   -1.1055    0.0000 O   0  0  0  0  0  0  0  0  0  0  0  0
   28.8797   -2.4944    0.0000 C   0  0  0  0  0  0  0  0  0  0  0  0
   29.6703   -3.7691    0.0000 O   0  0  0  0  0  0  0  0  0  0  0  0
   29.6508    0.5156    0.0000 C   0  0  0  0  0  0  0  0  0  0  0  0
   29.7604    2.0115    0.0000 C   0  0  0  0  0  0  0  0  0  0  0  0
   31.1108    2.6646    0.0000 C   0  0  0  0  0  0  0  0  0  0  0  0
   32.3516    1.8216    0.0000 C   0  0  0  0  0  0  0  0  0  0  0  0
   32.2419    0.3257    0.0000 C   0  0  0  0  0  0  0  0  0  0  0  0
   30.8915   -0.3274    0.0000 C   0  0  0  0  0  0  0  0  0  0  0  0
   33.7019    2.4747    0.0000 O   0  0  0  0  0  0  0  0  0  0  0  0
   28.5197    2.8545    0.0000 O   0  0  0  0  0  0  0  0  0  0  0  0
   27.1693    2.2014    0.0000 C   0  0  0  0  0  0  0  0  0  0  0  0
   27.0597    0.7055    0.0000 C   0  0  0  0  0  0  0  0  0  0  0  0
   25.7605    0.7505    0.0000 C   0  0  0  0  0  0  0  0  0  0  0  0
   25.0987    1.2001    0.0000 C   0  0  0  0  0  0  0  0  0  0  0  0
   25.1572    1.9980    0.0000 C   0  0  0  0  0  0  0  0  0  0  0  0
   25.8774    2.3463    0.0000 C   0  0  0  0  0  0  0  0  0  0  0  0
   23.3374    3.2343    0.0000 O   0  0  0  0  0  0  0  0  0  0  0  0
   22.5126   -3.5705    0.0000 S   0  0  0  0  0  0  0  0  0  0  0  0
   20.5392   -1.7500    0.0000 N   0  0  0  0  0  0  0  0  0  0  0  0
   19.4567   -2.7884    0.0000 C   0  0  0  0  0  0  0  0  0  0  0  0
   18.0162   -2.3701    0.0000 C   0  0  0  0  0  0  0  0  0  0  0  0
   16.9337   -3.4085    0.0000 C   0  0  0  0  0  0  0  0  0  0  0  0
   17.3057   -4.1136    0.0000 O   0  0  0  0  0  0  0  0  0  0  0  0
   15.4932   -2.9902    0.0000 N   0  0  0  0  0  0  0  0  0  0  0  0
   14.4107   -4.0286    0.0000 C   0  0  0  0  0  0  0  0  0  0  0  0
   15.6213   -4.9143    0.0000 C   0  0  0  0  0  0  0  0  0  0  0  0
   16.9937   -4.3088    0.0000 C   0  0  0  0  0  0  0  0  0  0  0  0
   17.3104   -2.8426    0.0000 C   0  0  0  0  0  0  0  0  0  0  0  0
   18.8027   -2.6908    0.0000 N   0  0  0  0  0  0  0  0  0  0  0  0
   19.4082   -4.0632    0.0000 C   0  0  0  0  0  0  0  0  0  0  0  0
   20.8333   -4.5315    0.0000 C   0  0  0  0  0  0  0  0  0  0  0  0
   21.1402   -5.9997    0.0000 C   0  0  0  0  0  0  0  0  0  0  0  0
   20.0222   -6.9997    0.0000 C   0  0  0  0  0  0  0  0  0  0  0  0
   18.5971   -6.5314    0.0000 C   0  0  0  0  0  0  0  0  0  0  0  0
   18.2902   -5.0631    0.0000 C   0  0  0  0  0  0  0  0  0  0  0  0
   13.0384   -4.6341    0.0000 C   0  0  0  0  0  0  0  0  0  0  0  0
   13.2423   -6.1202    0.0000 O   0  0  0  0  0  0  0  0  0  0  0  0
   11.8278   -3.7484    0.0000 N   0  0  0  0  0  0  0  0  0  0  0  0
   10.4555   -4.3539    0.0000 C   0  0  0  0  0  0  0  0  0  0  0  0
   11.2901   -5.6003    0.0000 C   0  0  0  0  0  0  0  0  0  0  0  0
   12.7868   -5.5006    0.0000 C   0  0  0  0  0  0  0  0  0  0  0  0
   13.6214   -6.7470    0.0000 N   0  0  0  0  0  0  0  0  0  0  0  0
   13.7549   -4.3548    0.0000 O   0  0  0  0  0  0  0  0  0  0  0  0
    8.9588   -4.4535    0.0000 C   0  0  0  0  0  0  0  0  0  0  0  0
    8.6421   -5.9197    0.0000 O   0  0  0  0  0  0  0  0  0  0  0  0
    8.1242   -3.2072    0.0000 N   0  0  0  0  0  0  0  0  0  0  0  0
    6.6275   -3.3068    0.0000 C   0  0  0  0  0  0  0  0  0  0  0  0
    6.9855   -4.7635    0.0000 C   0  0  0  0  0  0  0  0  0  0  0  0
    8.4260   -5.1817    0.0000 C   0  0  0  0  0  0  0  0  0  0  0  0
    8.7840   -6.6384    0.0000 C   0  0  0  0  0  0  0  0  0  0  0  0
   10.1628   -7.2291    0.0000 O   0  0  0  0  0  0  0  0  0  0  0  0
    7.7015   -7.6768    0.0000 O   0  0  0  0  0  0  0  0  0  0  0  0
    5.1870   -2.8885    0.0000 C   0  0  0  0  0  0  0  0  0  0  0  0
    4.3879   -4.1580    0.0000 O   0  0  0  0  0  0  0  0  0  0  0  0
    4.8290   -1.4319    0.0000 N   0  0  0  0  0  0  0  0  0  0  0  0
    3.3884   -1.0136    0.0000 C   0  0  0  0  0  0  0  0  0  0  0  0
    3.2267   -2.5049    0.0000 C   0  0  0  0  0  0  0  0  0  0  0  0
    4.4372   -3.3906    0.0000 C   0  0  0  0  0  0  0  0  0  0  0  0
    4.2755   -4.8818    0.0000 C   0  0  0  0  0  0  0  0  0  0  0  0
    5.8777   -3.8089    0.0000 C   0  0  0  0  0  0  0  0  0  0  0  0
    2.1779   -0.1279    0.0000 C   0  0  0  0  0  0  0  0  0  0  0  0
    0.9928   -1.0475    0.0000 O   0  0  0  0  0  0  0  0  0  0  0  0
    2.3397    1.3634    0.0000 N   0  0  0  0  0  0  0  0  0  0  0  0
    1.1291    2.2491    0.0000 C   0  0  0  0  0  0  0  0  0  0  0  0
    0.8731    0.7711    0.0000 C   0  0  0  0  0  0  0  0  0  0  0  0
    0.3419   -0.6317    0.0000 C   0  0  0  0  0  0  0  0  0  0  0  0
   -0.4451   -1.9087    0.0000 C   0  0  0  0  0  0  0  0  0  0  0  0
   -1.4595   -3.0136    0.0000 C   0  0  0  0  0  0  0  0  0  0  0  0
   -2.6648   -3.9066    0.0000 C   0  0  0  0  0  0  0  0  0  0  0  0
   -4.0172   -4.5553    0.0000 C   0  0  0  0  0  0  0  0  0  0  0  0
   -5.4680   -4.9364    0.0000 C   0  0  0  0  0  0  0  0  0  0  0  0
    2.4603    2.9405    0.0000 C   0  0  0  0  0  0  0  0  0  0  0  0
    1.1008    3.7488    0.0000 C   0  0  0  0  0  0  0  0  0  0  0  0
    2.5591    4.1000    0.0000 O   0  0  0  0  0  0  0  0  0  0  0  0
    0.7892    5.2161    0.0000 N   0  0  0  0  0  0  0  0  0  0  0  0
    0.2055    6.5979    0.0000 C   0  0  0  0  0  0  0  0  0  0  0  0
    0.9516    7.8992    0.0000 C   0  0  0  0  0  0  0  0  0  0  0  0
    2.4516    7.9037    0.0000 C   0  0  0  0  0  0  0  0  0  0  0  0
    3.1977    9.2050    0.0000 C   0  0  0  0  0  0  0  0  0  0  0  0
    4.6977    9.2095    0.0000 N   0  0  0  0  0  0  0  0  0  0  0  0
    5.4438   10.5108    0.0000 C   0  0  0  0  0  0  0  0  0  0  0  0
    6.9438   10.5153    0.0000 N   0  0  0  0  0  0  0  0  0  0  0  0
    4.6899   11.8075    0.0000 N   0  0  0  0  0  0  0  0  0  0  0  0
   -0.6291    7.8443    0.0000 C   0  0  0  0  0  0  0  0  0  0  0  0
    0.4079    8.9281    0.0000 O   0  0  0  0  0  0  0  0  0  0  0  0
   -1.6845    8.9101    0.0000 N   0  0  0  0  0  0  0  0  0  0  0  0
   -2.9226    9.7570    0.0000 C   0  0  0  0  0  0  0  0  0  0  0  0
   -2.9985   11.2551    0.0000 C   0  0  0  0  0  0  0  0  0  0  0  0
   -1.7390   12.0698    0.0000 O   0  0  0  0  0  0  0  0  0  0  0  0
   -4.2986   10.3543    0.0000 C   0  0  0  0  0  0  0  0  0  0  0  0
   -4.0121   11.8267    0.0000 O   0  0  0  0  0  0  0  0  0  0  0  0
   -5.7627   10.6804    0.0000 N   0  0  0  0  0  0  0  0  0  0  0  0
   -7.2621   10.7234    0.0000 C   0  0  0  0  0  0  0  0  0  0  0  0
   -8.1358   11.9427    0.0000 C   0  0  0  0  0  0  0  0  0  0  0  0
   -7.5168   13.3090    0.0000 C   0  0  0  0  0  0  0  0  0  0  0  0
   -6.0240   13.4561    0.0000 C   0  0  0  0  0  0  0  0  0  0  0  0
   -5.4050   14.8224    0.0000 C   0  0  0  0  0  0  0  0  0  0  0  0
   -6.2788   16.0416    0.0000 C   0  0  0  0  0  0  0  0  0  0  0  0
   -7.7715   15.8946    0.0000 C   0  0  0  0  0  0  0  0  0  0  0  0
   -8.3905   14.5283    0.0000 C   0  0  0  0  0  0  0  0  0  0  0  0
   -8.7425   10.4820    0.0000 C   0  0  0  0  0  0  0  0  0  0  0  0
   -9.2976   11.8755    0.0000 O   0  0  0  0  0  0  0  0  0  0  0  0
  -10.1505    9.9647    0.0000 N   0  0  0  0  0  0  0  0  0  0  0  0
  -11.4352    9.1904    0.0000 C   0  0  0  0  0  0  0  0  0  0  0  0
  -12.8294    9.7437    0.0000 C   0  0  0  0  0  0  0  0  0  0  0  0
  -13.0473   11.2278    0.0000 C   0  0  0  0  0  0  0  0  0  0  0  0
  -14.4415   11.7811    0.0000 C   0  0  0  0  0  0  0  0  0  0  0  0
  -14.6595   13.2652    0.0000 N   0  0  0  0  0  0  0  0  0  0  0  0
  -16.0537   13.8185    0.0000 C   0  0  0  0  0  0  0  0  0  0  0  0
  -16.2716   15.3025    0.0000 N   0  0  0  0  0  0  0  0  0  0  0  0
  -17.2300   12.8877    0.0000 N   0  0  0  0  0  0  0  0  0  0  0  0
  -12.5501    8.1869    0.0000 C   0  0  0  0  0  0  0  0  0  0  0  0
  -13.7704    9.0591    0.0000 O   0  0  0  0  0  0  0  0  0  0  0  0
  -13.4549    6.9905    0.0000 N   0  0  0  0  0  0  0  0  0  0  0  0
  -14.1169    5.6445    0.0000 C   0  0  0  0  0  0  0  0  0  0  0  0
  -15.5890    5.3562    0.0000 C   0  0  0  0  0  0  0  0  0  0  0  0
  -16.5747    6.4869    0.0000 O   0  0  0  0  0  0  0  0  0  0  0  0
  -14.5123    4.1976    0.0000 C   0  0  0  0  0  0  0  0  0  0  0  0
  -16.0105    4.2715    0.0000 O   0  0  0  0  0  0  0  0  0  0  0  0
  -14.6267    2.7019    0.0000 N   0  0  0  0  0  0  0  0  0  0  0  0
  -14.4560    1.2117    0.0000 C   0  0  0  0  0  0  0  0  0  0  0  0
  -15.5385    0.1733    0.0000 C   0  0  0  0  0  0  0  0  0  0  0  0
  -16.9790    0.5916    0.0000 C   0  0  0  0  0  0  0  0  0  0  0  0
  -18.0614   -0.4468    0.0000 C   0  0  0  0  0  0  0  0  0  0  0  0
  -18.1895    1.4773    0.0000 C   0  0  0  0  0  0  0  0  0  0  0  0
  -14.0063   -0.2193    0.0000 C   0  0  0  0  0  0  0  0  0  0  0  0
  -15.3066   -0.9671    0.0000 O   0  0  0  0  0  0  0  0  0  0  0  0
  -13.2939   -1.5394    0.0000 N   0  0  0  0  0  0  0  0  0  0  0  0
  -12.3446   -2.7008    0.0000 C   0  0  0  0  0  0  0  0  0  0  0  0
  -11.1926   -3.6615    0.0000 C   0  0  0  0  0  0  0  0  0  0  0  0
   -9.8797   -4.3868    0.0000 C   0  0  0  0  0  0  0  0  0  0  0  0
   -8.4532   -4.8506    0.0000 C   0  0  0  0  0  0  0  0  0  0  0  0
   -6.9647   -5.0360    0.0000 C   0  0  0  0  0  0  0  0  0  0  0  0
  -13.8067   -3.0356    0.0000 C   0  0  0  0  0  0  0  0  0  0  0  0
  -12.6939   -4.1595    0.0000 C   0  0  0  0  0  0  0  0  0  0  0  0
  -11.8872   -5.4242    0.0000 O   0  0  0  0  0  0  0  0  0  0  0  0
  -14.1318   -4.5865    0.0000 N   0  0  0  0  0  0  0  0  0  0  0  0
  -14.4811   -6.0452    0.0000 C   0  0  0  0  0  0  0  0  0  0  0  0
  -14.3103   -7.5355    0.0000 C   0  0  0  0  0  0  0  0  0  0  0  0
  -15.5156   -8.4285    0.0000 C   0  0  0  0  0  0  0  0  0  0  0  0
  -15.3448   -9.9187    0.0000 O   0  0  0  0  0  0  0  0  0  0  0  0
  -16.9952   -8.1819    0.0000 O   0  0  0  0  0  0  0  0  0  0  0  0
  -15.9190   -6.4721    0.0000 C   0  0  0  0  0  0  0  0  0  0  0  0
  -17.0077   -5.4403    0.0000 O   0  0  0  0  0  0  0  0  0  0  0  0
  -16.2683   -7.9309    0.0000 N   0  0  0  0  0  0  0  0  0  0  0  0
  -17.7063   -8.3578    0.0000 C   0  0  0  0  0  0  0  0  0  0  0  0
  -19.2035   -8.2672    0.0000 C   0  0  0  0  0  0  0  0  0  0  0  0
  -20.0307   -9.5185    0.0000 C   0  0  0  0  0  0  0  0  0  0  0  0
  -21.5279   -9.4279    0.0000 C   0  0  0  0  0  0  0  0  0  0  0  0
  -22.5014  -10.5691    0.0000 N   0  0  0  0  0  0  0  0  0  0  0  0
  -22.1980   -8.0859    0.0000 O   0  0  0  0  0  0  0  0  0  0  0  0
  -18.0555   -9.8166    0.0000 C   0  0  0  0  0  0  0  0  0  0  0  0
  -16.9668  -10.8485    0.0000 O   0  0  0  0  0  0  0  0  0  0  0  0
  -19.4935  -10.2435    0.0000 N   0  0  0  0  0  0  0  0  0  0  0  0
  -19.8428  -11.7023    0.0000 C   0  0  0  0  0  0  0  0  0  0  0  0
  -19.6720  -13.1925    0.0000 C   0  0  0  0  0  0  0  0  0  0  0  0
  -20.8773  -14.0855    0.0000 C   0  0  0  0  0  0  0  0  0  0  0  0
  -19.0019  -14.5345    0.0000 C   0  0  0  0  0  0  0  0  0  0  0  0
  -17.5046  -14.6252    0.0000 C   0  0  0  0  0  0  0  0  0  0  0  0
  -21.2807  -12.1292    0.0000 C   0  0  0  0  0  0  0  0  0  0  0  0
  -21.8052  -13.5345    0.0000 O   0  0  0  0  0  0  0  0  0  0  0  0
  -22.4871  -11.2378    0.0000 O   0  0  0  0  0  0  0  0  0  0  0  0
   22.5293    0.2722    0.0000 H   0  0  0  0  0  0  0  0  0  0  0  0
   23.7782   -4.0432    0.0000 H   0  0  0  0  0  0  0  0  0  0  0  0
   26.6592   -4.8798    0.0000 H   0  0  0  0  0  0  0  0  0  0  0  0
   24.8853    0.8169    0.0000 H   0  0  0  0  0  0  0  0  0  0  0  0
   31.2205    4.1606    0.0000 H   0  0  0  0  0  0  0  0  0  0  0  0
   33.4827   -0.5173    0.0000 H   0  0  0  0  0  0  0  0  0  0  0  0
   30.7819   -1.8234    0.0000 H   0  0  0  0  0  0  0  0  0  0  0  0
   34.9427    1.6317    0.0000 H   0  0  0  0  0  0  0  0  0  0  0  0
   25.5996   -1.4436    0.0000 H   0  0  0  0  0  0  0  0  0  0  0  0
   23.0486    0.4118    0.0000 H   0  0  0  0  0  0  0  0  0  0  0  0
   26.0382    4.5404    0.0000 H   0  0  0  0  0  0  0  0  0  0  0  0
   23.4471    4.7303    0.0000 H   0  0  0  0  0  0  0  0  0  0  0  0
   20.1812   -0.2934    0.0000 H   0  0  0  0  0  0  0  0  0  0  0  0
   20.6673   -3.6741    0.0000 H   0  0  0  0  0  0  0  0  0  0  0  0
   19.1400   -4.2546    0.0000 H   0  0  0  0  0  0  0  0  0  0  0  0
   18.6783   -1.0241    0.0000 H   0  0  0  0  0  0  0  0  0  0  0  0
   16.9226   -1.3434    0.0000 H   0  0  0  0  0  0  0  0  0  0  0  0
   15.1352   -1.5336    0.0000 H   0  0  0  0  0  0  0  0  0  0  0  0
   13.5761   -2.7822    0.0000 H   0  0  0  0  0  0  0  0  0  0  0  0
   16.4559   -6.1607    0.0000 H   0  0  0  0  0  0  0  0  0  0  0  0
   14.6735   -6.0769    0.0000 H   0  0  0  0  0  0  0  0  0  0  0  0
   16.1816   -1.8548    0.0000 H   0  0  0  0  0  0  0  0  0  0  0  0
   19.5571   -1.3943    0.0000 H   0  0  0  0  0  0  0  0  0  0  0  0
   22.0649   -3.6753    0.0000 H   0  0  0  0  0  0  0  0  0  0  0  0
   22.5653   -6.4680    0.0000 H   0  0  0  0  0  0  0  0  0  0  0  0
   20.3291   -8.4680    0.0000 H   0  0  0  0  0  0  0  0  0  0  0  0
   17.4791   -7.5314    0.0000 H   0  0  0  0  0  0  0  0  0  0  0  0
   11.9896   -2.2571    0.0000 H   0  0  0  0  0  0  0  0  0  0  0  0
   10.0975   -2.8973    0.0000 H   0  0  0  0  0  0  0  0  0  0  0  0
   11.6481   -7.0569    0.0000 H   0  0  0  0  0  0  0  0  0  0  0  0
   10.0018   -6.3685    0.0000 H   0  0  0  0  0  0  0  0  0  0  0  0
   15.1191   -6.8305    0.0000 H   0  0  0  0  0  0  0  0  0  0  0  0
   12.9593   -8.0930    0.0000 H   0  0  0  0  0  0  0  0  0  0  0  0
    8.7862   -1.8612    0.0000 H   0  0  0  0  0  0  0  0  0  0  0  0
    6.9698   -1.8464    0.0000 H   0  0  0  0  0  0  0  0  0  0  0  0
    6.8237   -6.2547    0.0000 H   0  0  0  0  0  0  0  0  0  0  0  0
    5.5574   -5.2223    0.0000 H   0  0  0  0  0  0  0  0  0  0  0  0
    9.9227   -5.0821    0.0000 H   0  0  0  0  0  0  0  0  0  0  0  0
    8.9438   -3.7739    0.0000 H   0  0  0  0  0  0  0  0  0  0  0  0
    5.9114   -0.3935    0.0000 H   0  0  0  0  0  0  0  0  0  0  0  0
    4.0505    0.3324    0.0000 H   0  0  0  0  0  0  0  0  0  0  0  0
    2.4055   -3.7601    0.0000 H   0  0  0  0  0  0  0  0  0  0  0  0
    1.7862   -2.0866    0.0000 H   0  0  0  0  0  0  0  0  0  0  0  0
    5.4053   -2.2448    0.0000 H   0  0  0  0  0  0  0  0  0  0  0  0
    5.2357   -6.0342    0.0000 H   0  0  0  0  0  0  0  0  0  0  0  0
    3.6134   -6.2278    0.0000 H   0  0  0  0  0  0  0  0  0  0  0  0
    2.7947   -4.6423    0.0000 H   0  0  0  0  0  0  0  0  0  0  0  0
    6.2358   -5.2655    0.0000 H   0  0  0  0  0  0  0  0  0  0  0  0
    7.3541   -4.0744    0.0000 H   0  0  0  0  0  0  0  0  0  0  0  0
    5.8565   -2.3090    0.0000 H   0  0  0  0  0  0  0  0  0  0  0  0
    3.7756    1.7971    0.0000 H   0  0  0  0  0  0  0  0  0  0  0  0
    2.3716    0.8374    0.0000 H   0  0  0  0  0  0  0  0  0  0  0  0
    1.7526   -0.4440    0.0000 H   0  0  0  0  0  0  0  0  0  0  0  0
    1.7882   -1.0295    0.0000 H   0  0  0  0  0  0  0  0  0  0  0  0
    1.1366   -1.9039    0.0000 H   0  0  0  0  0  0  0  0  0  0  0  0
    1.0486   -2.0468    0.0000 H   0  0  0  0  0  0  0  0  0  0  0  0
    0.2610   -3.2321    0.0000 H   0  0  0  0  0  0  0  0  0  0  0  0
   -0.0808   -3.6043    0.0000 H   0  0  0  0  0  0  0  0  0  0  0  0
   -1.0166   -4.4467    0.0000 H   0  0  0  0  0  0  0  0  0  0  0  0
   -1.4227   -4.7476    0.0000 H   0  0  0  0  0  0  0  0  0  0  0  0
   -2.5011   -5.3976    0.0000 H   0  0  0  0  0  0  0  0  0  0  0  0
   -2.9568   -5.6162    0.0000 H   0  0  0  0  0  0  0  0  0  0  0  0
   -4.3200   -6.0245    0.0000 H   0  0  0  0  0  0  0  0  0  0  0  0
   -5.2265   -6.4169    0.0000 H   0  0  0  0  0  0  0  0  0  0  0  0
    3.8135    2.2934    0.0000 H   0  0  0  0  0  0  0  0  0  0  0  0
    3.6018    3.9135    0.0000 H   0  0  0  0  0  0  0  0  0  0  0  0
    1.8636    4.3166    0.0000 H   0  0  0  0  0  0  0  0  0  0  0  0
    2.2643    5.4880    0.0000 H   0  0  0  0  0  0  0  0  0  0  0  0
    1.6806    6.3254    0.0000 H   0  0  0  0  0  0  0  0  0  0  0  0
    1.2076    9.3772    0.0000 H   0  0  0  0  0  0  0  0  0  0  0  0
   -0.2944    8.7343    0.0000 H   0  0  0  0  0  0  0  0  0  0  0  0
    3.8627    7.3949    0.0000 H   0  0  0  0  0  0  0  0  0  0  0  0
    2.5608    6.4077    0.0000 H   0  0  0  0  0  0  0  0  0  0  0  0
    3.4537   10.6830    0.0000 H   0  0  0  0  0  0  0  0  0  0  0  0
    1.8592    9.8820    0.0000 H   0  0  0  0  0  0  0  0  0  0  0  0
    5.4516    7.9127    0.0000 H   0  0  0  0  0  0  0  0  0  0  0  0
    7.6899   11.8165    0.0000 H   0  0  0  0  0  0  0  0  0  0  0  0
    7.6977    9.2185    0.0000 H   0  0  0  0  0  0  0  0  0  0  0  0
    5.4360   13.1088    0.0000 H   0  0  0  0  0  0  0  0  0  0  0  0
    3.1899   11.8030    0.0000 H   0  0  0  0  0  0  0  0  0  0  0  0
   -0.7238   10.0621    0.0000 H   0  0  0  0  0  0  0  0  0  0  0  0
   -1.6140   10.4902    0.0000 H   0  0  0  0  0  0  0  0  0  0  0  0
   -3.4094   12.6977    0.0000 H   0  0  0  0  0  0  0  0  0  0  0  0
   -4.4982   11.2840    0.0000 H   0  0  0  0  0  0  0  0  0  0  0  0
   -1.8149   13.5679    0.0000 H   0  0  0  0  0  0  0  0  0  0  0  0
   -5.3972   12.1351    0.0000 H   0  0  0  0  0  0  0  0  0  0  0  0
   -6.5576   12.0477    0.0000 H   0  0  0  0  0  0  0  0  0  0  0  0
   -9.2614   12.9342    0.0000 H   0  0  0  0  0  0  0  0  0  0  0  0
   -9.4131   11.1562    0.0000 H   0  0  0  0  0  0  0  0  0  0  0  0
   -5.0082   12.3524    0.0000 H   0  0  0  0  0  0  0  0  0  0  0  0
   -3.9122   14.9694    0.0000 H   0  0  0  0  0  0  0  0  0  0  0  0
   -5.6597   17.4079    0.0000 H   0  0  0  0  0  0  0  0  0  0  0  0
   -8.6453   17.1138    0.0000 H   0  0  0  0  0  0  0  0  0  0  0  0
   -9.8833   14.3812    0.0000 H   0  0  0  0  0  0  0  0  0  0  0  0
  -10.6296   11.3862    0.0000 H   0  0  0  0  0  0  0  0  0  0  0  0
  -11.3754   10.6892    0.0000 H   0  0  0  0  0  0  0  0  0  0  0  0
  -14.3288    9.7868    0.0000 H   0  0  0  0  0  0  0  0  0  0  0  0
  -13.4787    8.3915    0.0000 H   0  0  0  0  0  0  0  0  0  0  0  0
  -12.7445   12.6969    0.0000 H   0  0  0  0  0  0  0  0  0  0  0  0
  -11.5821   11.5488    0.0000 H   0  0  0  0  0  0  0  0  0  0  0  0
  -15.9409   11.8242    0.0000 H   0  0  0  0  0  0  0  0  0  0  0  0
  -14.9212   10.3598    0.0000 H   0  0  0  0  0  0  0  0  0  0  0  0
  -13.4832   14.1959    0.0000 H   0  0  0  0  0  0  0  0  0  0  0  0
  -17.6658   15.8559    0.0000 H   0  0  0  0  0  0  0  0  0  0  0  0
  -15.0953   16.2333    0.0000 H   0  0  0  0  0  0  0  0  0  0  0  0
  -18.6242   13.4410    0.0000 H   0  0  0  0  0  0  0  0  0  0  0  0
  -17.0120   11.4036    0.0000 H   0  0  0  0  0  0  0  0  0  0  0  0
  -14.7318    7.7775    0.0000 H   0  0  0  0  0  0  0  0  0  0  0  0
  -15.0289    6.8354    0.0000 H   0  0  0  0  0  0  0  0  0  0  0  0
  -16.9584    4.7442    0.0000 H   0  0  0  0  0  0  0  0  0  0  0  0
  -15.4041    3.8676    0.0000 H   0  0  0  0  0  0  0  0  0  0  0  0
  -18.0467    6.1986    0.0000 H   0  0  0  0  0  0  0  0  0  0  0  0
  -16.1187    2.8566    0.0000 H   0  0  0  0  0  0  0  0  0  0  0  0
  -15.7945    1.8887    0.0000 H   0  0  0  0  0  0  0  0  0  0  0  0
  -16.2005   -1.1727    0.0000 H   0  0  0  0  0  0  0  0  0  0  0  0
  -14.5782   -0.9790    0.0000 H   0  0  0  0  0  0  0  0  0  0  0  0
  -16.6623    2.0578    0.0000 H   0  0  0  0  0  0  0  0  0  0  0  0
  -19.5422   -0.2072    0.0000 H   0  0  0  0  0  0  0  0  0  0  0  0
  -18.7235   -1.7928    0.0000 H   0  0  0  0  0  0  0  0  0  0  0  0
  -16.9679   -1.4735    0.0000 H   0  0  0  0  0  0  0  0  0  0  0  0
  -19.6254    1.0436    0.0000 H   0  0  0  0  0  0  0  0  0  0  0  0
  -19.0241    2.7237    0.0000 H   0  0  0  0  0  0  0  0  0  0  0  0
  -17.1070    2.5157    0.0000 H   0  0  0  0  0  0  0  0  0  0  0  0
  -14.6327   -2.2159    0.0000 H   0  0  0  0  0  0  0  0  0  0  0  0
  -11.2595   -5.1600    0.0000 H   0  0  0  0  0  0  0  0  0  0  0  0
  -12.3777   -4.5811    0.0000 H   0  0  0  0  0  0  0  0  0  0  0  0
   -9.8443   -5.8864    0.0000 H   0  0  0  0  0  0  0  0  0  0  0  0
  -10.8693   -5.5141    0.0000 H   0  0  0  0  0  0  0  0  0  0  0  0
   -7.9583   -6.2666    0.0000 H   0  0  0  0  0  0  0  0  0  0  0  0
   -9.3637   -6.0427    0.0000 H   0  0  0  0  0  0  0  0  0  0  0  0
   -7.0078   -6.5354    0.0000 H   0  0  0  0  0  0  0  0  0  0  0  0
  -14.5816   -4.3200    0.0000 H   0  0  0  0  0  0  0  0  0  0  0  0
  -15.2952   -2.8502    0.0000 H   0  0  0  0  0  0  0  0  0  0  0  0
  -14.2428   -1.6004    0.0000 H   0  0  0  0  0  0  0  0  0  0  0  0
  -15.3382   -3.6950    0.0000 H   0  0  0  0  0  0  0  0  0  0  0  0
  -12.9838   -6.1359    0.0000 H   0  0  0  0  0  0  0  0  0  0  0  0
  -13.6402   -8.8775    0.0000 H   0  0  0  0  0  0  0  0  0  0  0  0
  -12.8724   -7.1086    0.0000 H   0  0  0  0  0  0  0  0  0  0  0  0
  -15.4616   -9.1955    0.0000 H   0  0  0  0  0  0  0  0  0  0  0  0
  -17.8770   -6.8676    0.0000 H   0  0  0  0  0  0  0  0  0  0  0  0
  -20.5795   -7.6699    0.0000 H   0  0  0  0  0  0  0  0  0  0  0  0
  -18.8543   -6.8084    0.0000 H   0  0  0  0  0  0  0  0  0  0  0  0
  -20.3799  -10.9773    0.0000 H   0  0  0  0  0  0  0  0  0  0  0  0
  -19.0963  -10.6920    0.0000 H   0  0  0  0  0  0  0  0  0  0  0  0
  -23.8523  -10.5886    0.0000 H   0  0  0  0  0  0  0  0  0  0  0  0
  -22.2597  -12.2174    0.0000 H   0  0  0  0  0  0  0  0  0  0  0  0
  -20.7995   -9.5058    0.0000 H   0  0  0  0  0  0  0  0  0  0  0  0
  -18.3455  -11.7929    0.0000 H   0  0  0  0  0  0  0  0  0  0  0  0
  -18.2968  -12.5935    0.0000 H   0  0  0  0  0  0  0  0  0  0  0  0
  -20.8894  -15.5855    0.0000 H   0  0  0  0  0  0  0  0  0  0  0  0
  -22.3152  -14.5124    0.0000 H   0  0  0  0  0  0  0  0  0  0  0  0
  -22.0991  -13.2154    0.0000 H   0  0  0  0  0  0  0  0  0  0  0  0
  -18.8312  -16.0248    0.0000 H   0  0  0  0  0  0  0  0  0  0  0  0
  -20.3771  -15.1335    0.0000 H   0  0  0  0  0  0  0  0  0  0  0  0
  -16.8345  -15.9672    0.0000 H   0  0  0  0  0  0  0  0  0  0  0  0
  -16.0667  -14.1983    0.0000 H   0  0  0  0  0  0  0  0  0  0  0  0
  -17.4924  -13.1252    0.0000 H   0  0  0  0  0  0  0  0  0  0  0  0
  1  2  1  0
  2  3  1  0
  3  4  2  0
  4  5  1  0
  5  6  2  0
  6  7  1  0
  7  8  2  0
  7  9  1  0
  9 10  1  0
 10 11  1  0
 11 12  2  0
  9 13  1  0
 13 14  1  0
 14 15  2  0
 15 16  1  0
 16 17  2  0
 17 18  1  0
 16 19  1  0
 14 20  1  0
 20 21  1  0
 21 22  2  0
 22 23  1  0
 23 24  2  0
 24 25  1  0
 25 26  2  0
 25 27  1  0
  1 28  2  0
  1 29  1  0
 29 30  1  0
 30 31  1  0
 31 32  1  0
 32 33  2  0
 32 34  1  0
 34 35  1  0
 35 36  1  0
 36 37  1  0
 37 38  2  0
 38 39  1  0
 39 40  1  0
 40 41  2  0
 41 42  1  0
 42 43  2  0
 43 44  1  0
 44 45  2  0
 35 46  1  0
 46 47  2  0
 46 48  1  0
 48 49  1  0
 49 50  1  0
 50 51  1  0
 51 52  1  0
 51 53  2  0
 49 54  1  0
 54 55  2  0
 54 56  1  0
 56 57  1  0
 57 58  1  0
 58 59  1  0
 59 60  1  0
 60 61  2  0
 60 62  1  0
 57 63  1  0
 63 64  2  0
 63 65  1  0
 65 66  1  0
 66 67  1  0
 67 68  1  0
 68 69  1  0
 68 70  1  0
 66 71  1  0
 71 72  2  0
 71 73  1  0
 74 73  1  6
 74 75  1  0
 75 76  1  0
 76 77  1  0
 77 78  1  0
 78 79  1  0
 79 80  1  0
 80 81  1  0
 74 82  1  0
 74 83  1  0
 83 84  2  0
 83 85  1  0
 85 86  1  0
 86 87  1  0
 87 88  1  0
 88 89  1  0
 89 90  1  0
 90 91  1  0
 91 92  2  3
 91 93  1  0
 86 94  1  0
 94 95  2  0
 94 96  1  0
 96 97  1  0
 97 98  1  0
 98 99  1  0
 97100  1  0
100101  2  0
100102  1  0
102103  1  0
103104  1  0
104105  1  0
105106  2  0
106107  1  0
107108  2  0
108109  1  0
109110  2  0
103111  1  0
111112  2  0
111113  1  0
113114  1  0
114115  1  0
115116  1  0
116117  1  0
117118  1  0
118119  1  0
119120  2  3
119121  1  0
114122  1  0
122123  2  0
122124  1  0
124125  1  0
125126  1  0
126127  1  0
125128  1  0
128129  2  0
128130  1  0
130131  1  0
131132  1  0
132133  1  0
133134  1  0
133135  1  0
131136  1  0
136137  2  0
136138  1  0
138139  1  0
139140  1  0
140141  1  0
141142  1  0
142143  1  0
139144  1  0
139145  1  1
145146  2  0
145147  1  0
147148  1  0
148149  1  0
149150  1  0
150151  2  0
150152  1  0
148153  1  0
153154  2  0
153155  1  0
155156  1  0
156157  1  0
157158  1  0
158159  1  0
159160  1  0
159161  2  0
156162  1  0
162163  2  0
162164  1  0
164165  1  0
165166  1  0
166167  1  0
166168  1  0
168169  1  0
165170  1  0
170171  2  0
170172  1  0
  8  3  1  0
 45 37  1  0
110105  1  0
 11  6  1  0
 45 40  1  0
 18 13  2  0
 81143  2  0
 22  9  1  0
 26 21  1  0
  2173  1  0
  4174  1  0
  5175  1  0
  8176  1  0
 15177  1  0
 17178  1  0
 18179  1  0
 19180  1  0
 23181  1  0
 24182  1  0
 26183  1  0
 27184  1  0
 29185  1  0
 30186  1  0
 30187  1  0
 31188  1  0
 31189  1  0
 34190  1  0
 35191  1  1
 36192  1  0
 36193  1  0
 38194  1  0
 39195  1  0
 41196  1  0
 42197  1  0
 43198  1  0
 44199  1  0
 48200  1  0
 49201  1  1
 50202  1  0
 50203  1  0
 52204  1  0
 52205  1  0
 56206  1  0
 57207  1  1
 58208  1  0
 58209  1  0
 59210  1  0
 59211  1  0
 65212  1  0
 66213  1  1
 67214  1  0
 67215  1  0
 68216  1  0
 69217  1  0
 69218  1  0
 69219  1  0
 70220  1  0
 70221  1  0
 70222  1  0
 73223  1  0
 75224  1  0
 75225  1  0
 76226  1  0
 76227  1  0
 77228  1  0
 77229  1  0
 78230  1  0
 78231  1  0
 79232  1  0
 79233  1  0
 80234  1  0
 80235  1  0
 81236  1  0
 82237  1  0
 82238  1  0
 82239  1  0
 85240  1  0
 86241  1  6
 87242  1  0
 87243  1  0
 88244  1  0
 88245  1  0
 89246  1  0
 89247  1  0
 90248  1  0
 92249  1  0
 92250  1  0
 93251  1  0
 93252  1  0
 96253  1  0
 97254  1  6
 98255  1  0
 98256  1  0
 99257  1  0
102258  1  0
103259  1  6
104260  1  0
104261  1  0
106262  1  0
107263  1  0
108264  1  0
109265  1  0
110266  1  0
113267  1  0
114268  1  6
115269  1  0
115270  1  0
116271  1  0
116272  1  0
117273  1  0
117274  1  0
118275  1  0
120276  1  0
120277  1  0
121278  1  0
121279  1  0
124280  1  0
125281  1  6
126282  1  0
126283  1  0
127284  1  0
130285  1  0
131286  1  6
132287  1  0
132288  1  0
133289  1  0
134290  1  0
134291  1  0
134292  1  0
135293  1  0
135294  1  0
135295  1  0
138296  1  0
140297  1  0
140298  1  0
141299  1  0
141300  1  0
142301  1  0
142302  1  0
143303  1  0
144304  1  0
144305  1  0
144306  1  0
147307  1  0
148308  1  1
149309  1  0
149310  1  0
155311  1  0
156312  1  6
157313  1  0
157314  1  0
158315  1  0
158316  1  0
160317  1  0
160318  1  0
164319  1  0
165320  1  1
166321  1  1
167322  1  0
167323  1  0
167324  1  0
168325  1  0
168326  1  0
169327  1  0
169328  1  0
169329  1  0
M  CHG  5  62  -1  92   1 120   1 152  -1 172  -1
M  END
