
     RDKit          2D

494502  0  0  0  0  0  0  0  0999 V2000
   31.5665   -5.8070    0.0000 C   0  0  0  0  0  0  0  0  0  0  0  0
   32.9989   -5.3618    0.0000 N   0  0  0  0  0  0  0  0  0  0  0  0
   34.1007   -6.3796    0.0000 C   0  0  0  0  0  0  0  0  0  0  0  0
   33.7701   -7.8428    0.0000 C   0  0  0  0  0  0  0  0  0  0  0  0
   34.8719   -8.8606    0.0000 C   0  0  0  0  0  0  0  0  0  0  0  0
   36.3043   -8.4154    0.0000 C   0  0  0  0  0  0  0  0  0  0  0  0
   36.6349   -6.9523    0.0000 C   0  0  0  0  0  0  0  0  0  0  0  0
   35.5331   -5.9344    0.0000 C   0  0  0  0  0  0  0  0  0  0  0  0
   38.1285   -6.8146    0.0000 C   0  0  0  0  0  0  0  0  0  0  0  0
   38.7211   -8.1926    0.0000 O   0  0  0  0  0  0  0  0  0  0  0  0
   37.5936   -9.1819    0.0000 C   0  0  0  0  0  0  0  0  0  0  0  0
   37.7313  -10.6756    0.0000 O   0  0  0  0  0  0  0  0  0  0  0  0
   39.6284   -6.8337    0.0000 C   0  0  0  0  0  0  0  0  0  0  0  0
   40.3949   -5.5444    0.0000 C   0  0  0  0  0  0  0  0  0  0  0  0
   41.8948   -5.5636    0.0000 C   0  0  0  0  0  0  0  0  0  0  0  0
   42.6282   -6.8721    0.0000 C   0  0  0  0  0  0  0  0  0  0  0  0
   41.8616   -8.1614    0.0000 C   0  0  0  0  0  0  0  0  0  0  0  0
   40.3617   -8.1422    0.0000 C   0  0  0  0  0  0  0  0  0  0  0  0
   44.1280   -6.8912    0.0000 O   0  0  0  0  0  0  0  0  0  0  0  0
   39.6616   -4.2359    0.0000 O   0  0  0  0  0  0  0  0  0  0  0  0
   38.1617   -4.2167    0.0000 C   0  0  0  0  0  0  0  0  0  0  0  0
   37.3952   -5.5060    0.0000 C   0  0  0  0  0  0  0  0  0  0  0  0
   36.2530   -4.8852    0.0000 C   0  0  0  0  0  0  0  0  0  0  0  0
   35.8619   -4.1873    0.0000 C   0  0  0  0  0  0  0  0  0  0  0  0
   36.2707   -3.4996    0.0000 C   0  0  0  0  0  0  0  0  0  0  0  0
   37.0707   -3.5099    0.0000 C   0  0  0  0  0  0  0  0  0  0  0  0
   35.1952   -1.5805    0.0000 O   0  0  0  0  0  0  0  0  0  0  0  0
   31.2359   -7.2702    0.0000 S   0  0  0  0  0  0  0  0  0  0  0  0
   30.4647   -4.7892    0.0000 N   0  0  0  0  0  0  0  0  0  0  0  0
   29.0323   -5.2344    0.0000 C   0  0  0  0  0  0  0  0  0  0  0  0
   27.9305   -4.2166    0.0000 C   0  0  0  0  0  0  0  0  0  0  0  0
   26.4981   -4.6618    0.0000 C   0  0  0  0  0  0  0  0  0  0  0  0
   26.5158   -5.4588    0.0000 O   0  0  0  0  0  0  0  0  0  0  0  0
   25.3963   -3.6440    0.0000 N   0  0  0  0  0  0  0  0  0  0  0  0
   23.9639   -4.0892    0.0000 C   0  0  0  0  0  0  0  0  0  0  0  0
   24.6511   -5.4225    0.0000 C   0  0  0  0  0  0  0  0  0  0  0  0
   26.1494   -5.4940    0.0000 C   0  0  0  0  0  0  0  0  0  0  0  0
   26.8366   -6.8273    0.0000 N   0  0  0  0  0  0  0  0  0  0  0  0
   27.2417   -4.4660    0.0000 O   0  0  0  0  0  0  0  0  0  0  0  0
   22.4656   -4.0177    0.0000 C   0  0  0  0  0  0  0  0  0  0  0  0
   21.9840   -5.4383    0.0000 O   0  0  0  0  0  0  0  0  0  0  0  0
   21.7784   -2.6844    0.0000 N   0  0  0  0  0  0  0  0  0  0  0  0
   20.2801   -2.6129    0.0000 C   0  0  0  0  0  0  0  0  0  0  0  0
   20.4699   -4.1008    0.0000 C   0  0  0  0  0  0  0  0  0  0  0  0
   21.8533   -4.6805    0.0000 C   0  0  0  0  0  0  0  0  0  0  0  0
   22.0431   -6.1684    0.0000 C   0  0  0  0  0  0  0  0  0  0  0  0
   23.3456   -6.9124    0.0000 O   0  0  0  0  0  0  0  0  0  0  0  0
   20.8494   -7.0767    0.0000 O   0  0  0  0  0  0  0  0  0  0  0  0
   18.8966   -2.0332    0.0000 C   0  0  0  0  0  0  0  0  0  0  0  0
   17.9582   -3.2034    0.0000 O   0  0  0  0  0  0  0  0  0  0  0  0
   18.7069   -0.5453    0.0000 N   0  0  0  0  0  0  0  0  0  0  0  0
   17.3234    0.0344    0.0000 C   0  0  0  0  0  0  0  0  0  0  0  0
   16.9928   -1.4288    0.0000 C   0  0  0  0  0  0  0  0  0  0  0  0
   18.0946   -2.4466    0.0000 C   0  0  0  0  0  0  0  0  0  0  0  0
   17.7640   -3.9097    0.0000 C   0  0  0  0  0  0  0  0  0  0  0  0
   19.4781   -3.0263    0.0000 C   0  0  0  0  0  0  0  0  0  0  0  0
   16.2216    1.0522    0.0000 C   0  0  0  0  0  0  0  0  0  0  0  0
   14.9395    0.2736    0.0000 O   0  0  0  0  0  0  0  0  0  0  0  0
   16.5522    2.5153    0.0000 N   0  0  0  0  0  0  0  0  0  0  0  0
   15.4504    3.5332    0.0000 C   0  0  0  0  0  0  0  0  0  0  0  0
   15.0277    2.0940    0.0000 C   0  0  0  0  0  0  0  0  0  0  0  0
   14.3402    0.7608    0.0000 C   0  0  0  0  0  0  0  0  0  0  0  0
   13.4129   -0.4182    0.0000 C   0  0  0  0  0  0  0  0  0  0  0  0
   12.2791   -1.4004    0.0000 C   0  0  0  0  0  0  0  0  0  0  0  0
   10.9800   -2.1503    0.0000 C   0  0  0  0  0  0  0  0  0  0  0  0
    9.5625   -2.6407    0.0000 C   0  0  0  0  0  0  0  0  0  0  0  0
    8.0777   -2.8541    0.0000 C   0  0  0  0  0  0  0  0  0  0  0  0
   16.8517    4.0684    0.0000 C   0  0  0  0  0  0  0  0  0  0  0  0
   15.5931    5.0264    0.0000 C   0  0  0  0  0  0  0  0  0  0  0  0
   17.0819    5.2091    0.0000 O   0  0  0  0  0  0  0  0  0  0  0  0
   15.4507    6.5196    0.0000 N   0  0  0  0  0  0  0  0  0  0  0  0
   15.0282    7.9589    0.0000 C   0  0  0  0  0  0  0  0  0  0  0  0
   15.9177    9.1667    0.0000 C   0  0  0  0  0  0  0  0  0  0  0  0
   17.4084    9.0003    0.0000 C   0  0  0  0  0  0  0  0  0  0  0  0
   18.2979   10.2082    0.0000 C   0  0  0  0  0  0  0  0  0  0  0  0
   19.7886   10.0418    0.0000 N   0  0  0  0  0  0  0  0  0  0  0  0
   20.6781   11.2496    0.0000 C   0  0  0  0  0  0  0  0  0  0  0  0
   22.1688   11.0832    0.0000 N   0  0  0  0  0  0  0  0  0  0  0  0
   20.0768   12.6238    0.0000 N   0  0  0  0  0  0  0  0  0  0  0  0
   14.3410    9.2922    0.0000 C   0  0  0  0  0  0  0  0  0  0  0  0
   15.4947   10.2508    0.0000 O   0  0  0  0  0  0  0  0  0  0  0  0
   13.4138   10.4714    0.0000 N   0  0  0  0  0  0  0  0  0  0  0  0
   12.2803   11.4538    0.0000 C   0  0  0  0  0  0  0  0  0  0  0  0
   12.3756   12.9507    0.0000 C   0  0  0  0  0  0  0  0  0  0  0  0
   13.7196   13.6167    0.0000 O   0  0  0  0  0  0  0  0  0  0  0  0
   10.9813   12.2039    0.0000 C   0  0  0  0  0  0  0  0  0  0  0  0
   11.4336   13.6341    0.0000 O   0  0  0  0  0  0  0  0  0  0  0  0
    9.5639   12.6946    0.0000 N   0  0  0  0  0  0  0  0  0  0  0  0
    8.0792   12.9082    0.0000 C   0  0  0  0  0  0  0  0  0  0  0  0
    7.3500   14.2191    0.0000 C   0  0  0  0  0  0  0  0  0  0  0  0
    8.1206   15.5060    0.0000 C   0  0  0  0  0  0  0  0  0  0  0  0
    9.6204   15.4820    0.0000 C   0  0  0  0  0  0  0  0  0  0  0  0
   10.3911   16.7689    0.0000 C   0  0  0  0  0  0  0  0  0  0  0  0
    9.6619   18.0798    0.0000 C   0  0  0  0  0  0  0  0  0  0  0  0
    8.1621   18.1037    0.0000 C   0  0  0  0  0  0  0  0  0  0  0  0
    7.3914   16.8168    0.0000 C   0  0  0  0  0  0  0  0  0  0  0  0
    6.5809   12.8370    0.0000 C   0  0  0  0  0  0  0  0  0  0  0  0
    6.1881   14.2846    0.0000 O   0  0  0  0  0  0  0  0  0  0  0  0
    5.1231   12.4835    0.0000 N   0  0  0  0  0  0  0  0  0  0  0  0
    3.7586   11.8605    0.0000 C   0  0  0  0  0  0  0  0  0  0  0  0
    2.4365   12.5690    0.0000 C   0  0  0  0  0  0  0  0  0  0  0  0
    2.3890   14.0682    0.0000 C   0  0  0  0  0  0  0  0  0  0  0  0
    3.6637   14.8590    0.0000 C   0  0  0  0  0  0  0  0  0  0  0  0
    3.6162   16.3582    0.0000 C   0  0  0  0  0  0  0  0  0  0  0  0
    2.2941   17.0667    0.0000 C   0  0  0  0  0  0  0  0  0  0  0  0
    1.0195   16.2760    0.0000 C   0  0  0  0  0  0  0  0  0  0  0  0
    1.0669   14.7768    0.0000 C   0  0  0  0  0  0  0  0  0  0  0  0
    2.5367   10.9905    0.0000 C   0  0  0  0  0  0  0  0  0  0  0  0
    1.4236   11.9960    0.0000 O   0  0  0  0  0  0  0  0  0  0  0  0
    1.5014    9.9050    0.0000 N   0  0  0  0  0  0  0  0  0  0  0  0
    0.6904    8.6432    0.0000 C   0  0  0  0  0  0  0  0  0  0  0  0
   -0.8049    8.5244    0.0000 C   0  0  0  0  0  0  0  0  0  0  0  0
    0.1328    7.2507    0.0000 C   0  0  0  0  0  0  0  0  0  0  0  0
   -1.3472    7.4948    0.0000 O   0  0  0  0  0  0  0  0  0  0  0  0
   -0.1513    5.7778    0.0000 N   0  0  0  0  0  0  0  0  0  0  0  0
   -0.1514    4.2778    0.0000 C   0  0  0  0  0  0  0  0  0  0  0  0
   -1.3451    3.3695    0.0000 C   0  0  0  0  0  0  0  0  0  0  0  0
   -2.7286    3.9491    0.0000 C   0  0  0  0  0  0  0  0  0  0  0  0
   -3.9223    3.0408    0.0000 C   0  0  0  0  0  0  0  0  0  0  0  0
   -3.8304    4.9670    0.0000 C   0  0  0  0  0  0  0  0  0  0  0  0
    0.1324    2.8049    0.0000 C   0  0  0  0  0  0  0  0  0  0  0  0
   -1.2447    2.2101    0.0000 O   0  0  0  0  0  0  0  0  0  0  0  0
    0.6897    1.4123    0.0000 N   0  0  0  0  0  0  0  0  0  0  0  0
    1.5006    0.1503    0.0000 C   0  0  0  0  0  0  0  0  0  0  0  0
    2.5356   -0.9354    0.0000 C   0  0  0  0  0  0  0  0  0  0  0  0
    3.7574   -1.8056    0.0000 C   0  0  0  0  0  0  0  0  0  0  0  0
    5.1218   -2.4288    0.0000 C   0  0  0  0  0  0  0  0  0  0  0  0
    6.5795   -2.7826    0.0000 C   0  0  0  0  0  0  0  0  0  0  0  0
    0.0098   -0.0158    0.0000 C   0  0  0  0  0  0  0  0  0  0  0  0
    0.9874   -1.2592    0.0000 C   0  0  0  0  0  0  0  0  0  0  0  0
    1.6448   -2.6074    0.0000 O   0  0  0  0  0  0  0  0  0  0  0  0
   -0.4898   -1.5195    0.0000 N   0  0  0  0  0  0  0  0  0  0  0  0
   -1.0030   -2.9290    0.0000 C   0  0  0  0  0  0  0  0  0  0  0  0
   -1.0031   -4.4290    0.0000 C   0  0  0  0  0  0  0  0  0  0  0  0
   -2.3022   -5.1789    0.0000 C   0  0  0  0  0  0  0  0  0  0  0  0
   -2.3024   -6.6789    0.0000 O   0  0  0  0  0  0  0  0  0  0  0  0
   -3.7441   -4.7654    0.0000 O   0  0  0  0  0  0  0  0  0  0  0  0
   -2.4802   -3.1893    0.0000 C   0  0  0  0  0  0  0  0  0  0  0  0
   -3.4443   -2.0402    0.0000 O   0  0  0  0  0  0  0  0  0  0  0  0
   -2.9934   -4.5988    0.0000 N   0  0  0  0  0  0  0  0  0  0  0  0
   -4.4706   -4.8592    0.0000 C   0  0  0  0  0  0  0  0  0  0  0  0
   -5.9478   -4.5986    0.0000 C   0  0  0  0  0  0  0  0  0  0  0  0
   -6.9121   -5.7475    0.0000 C   0  0  0  0  0  0  0  0  0  0  0  0
   -8.3893   -5.4869    0.0000 C   0  0  0  0  0  0  0  0  0  0  0  0
   -9.4864   -6.5098    0.0000 N   0  0  0  0  0  0  0  0  0  0  0  0
   -8.9022   -4.0773    0.0000 O   0  0  0  0  0  0  0  0  0  0  0  0
   -4.9838   -6.2687    0.0000 C   0  0  0  0  0  0  0  0  0  0  0  0
   -4.0197   -7.4178    0.0000 O   0  0  0  0  0  0  0  0  0  0  0  0
   -6.4610   -6.5290    0.0000 N   0  0  0  0  0  0  0  0  0  0  0  0
   -6.9742   -7.9385    0.0000 C   0  0  0  0  0  0  0  0  0  0  0  0
   -6.9743   -9.4385    0.0000 C   0  0  0  0  0  0  0  0  0  0  0  0
   -8.1723  -10.3411    0.0000 C   0  0  0  0  0  0  0  0  0  0  0  0
   -6.4614  -10.8481    0.0000 C   0  0  0  0  0  0  0  0  0  0  0  0
   -4.9842  -11.1087    0.0000 C   0  0  0  0  0  0  0  0  0  0  0  0
   -8.4514   -8.1988    0.0000 C   0  0  0  0  0  0  0  0  0  0  0  0
   -9.5484   -7.1758    0.0000 O   0  0  0  0  0  0  0  0  0  0  0  0
   -8.9645   -9.6083    0.0000 N   0  0  0  0  0  0  0  0  0  0  0  0
  -10.4418   -9.8687    0.0000 C   0  0  0  0  0  0  0  0  0  0  0  0
  -11.9190   -9.6081    0.0000 C   0  0  0  0  0  0  0  0  0  0  0  0
  -12.8833  -10.7570    0.0000 C   0  0  0  0  0  0  0  0  0  0  0  0
  -14.3604  -10.4964    0.0000 O   0  0  0  0  0  0  0  0  0  0  0  0
  -12.7267  -12.2488    0.0000 O   0  0  0  0  0  0  0  0  0  0  0  0
  -10.9549  -11.2782    0.0000 C   0  0  0  0  0  0  0  0  0  0  0  0
   -9.9909  -12.4273    0.0000 O   0  0  0  0  0  0  0  0  0  0  0  0
  -12.4322  -11.5385    0.0000 N   0  0  0  0  0  0  0  0  0  0  0  0
  -12.9453  -12.9480    0.0000 C   0  0  0  0  0  0  0  0  0  0  0  0
  -12.9455  -14.4480    0.0000 C   0  0  0  0  0  0  0  0  0  0  0  0
  -14.2446  -15.1979    0.0000 C   0  0  0  0  0  0  0  0  0  0  0  0
  -14.2447  -16.6979    0.0000 C   0  0  0  0  0  0  0  0  0  0  0  0
  -15.4427  -17.6005    0.0000 N   0  0  0  0  0  0  0  0  0  0  0  0
  -12.9457  -17.4480    0.0000 O   0  0  0  0  0  0  0  0  0  0  0  0
  -14.4226  -13.2083    0.0000 C   0  0  0  0  0  0  0  0  0  0  0  0
  -15.3866  -12.0592    0.0000 O   0  0  0  0  0  0  0  0  0  0  0  0
  -14.9357  -14.6178    0.0000 N   0  0  0  0  0  0  0  0  0  0  0  0
  -16.4130  -14.8782    0.0000 C   0  0  0  0  0  0  0  0  0  0  0  0
  -17.8901  -14.6176    0.0000 C   0  0  0  0  0  0  0  0  0  0  0  0
  -18.0467  -13.1257    0.0000 C   0  0  0  0  0  0  0  0  0  0  0  0
  -19.3674  -14.8779    0.0000 C   0  0  0  0  0  0  0  0  0  0  0  0
  -20.0247  -13.5296    0.0000 C   0  0  0  0  0  0  0  0  0  0  0  0
  -16.9261  -16.2877    0.0000 C   0  0  0  0  0  0  0  0  0  0  0  0
  -16.1093  -17.5458    0.0000 O   0  0  0  0  0  0  0  0  0  0  0  0
  -18.4034  -16.5480    0.0000 N   0  0  0  0  0  0  0  0  0  0  0  0
  -19.0610  -17.8961    0.0000 C   0  0  0  0  0  0  0  0  0  0  0  0
  -20.5464  -17.6872    0.0000 C   0  0  0  0  0  0  0  0  0  0  0  0
  -20.8068  -16.2100    0.0000 C   0  0  0  0  0  0  0  0  0  0  0  0
  -19.4823  -15.5059    0.0000 C   0  0  0  0  0  0  0  0  0  0  0  0
  -20.3209  -14.2623    0.0000 C   0  0  0  0  0  0  0  0  0  0  0  0
  -21.8173  -14.3668    0.0000 O   0  0  0  0  0  0  0  0  0  0  0  0
  -19.6633  -12.9141    0.0000 N   0  0  0  0  0  0  0  0  0  0  0  0
  -20.5019  -11.6705    0.0000 C   0  0  0  0  0  0  0  0  0  0  0  0
  -21.7154  -10.7887    0.0000 C   0  0  0  0  0  0  0  0  0  0  0  0
  -19.8443  -10.3224    0.0000 C   0  0  0  0  0  0  0  0  0  0  0  0
  -18.3479  -10.2179    0.0000 O   0  0  0  0  0  0  0  0  0  0  0  0
  -20.6829   -9.0787    0.0000 N   0  0  0  0  0  0  0  0  0  0  0  0
  -20.0253   -7.7306    0.0000 C   0  0  0  0  0  0  0  0  0  0  0  0
  -18.9462   -6.6887    0.0000 C   0  0  0  0  0  0  0  0  0  0  0  0
  -20.8639   -6.4870    0.0000 C   0  0  0  0  0  0  0  0  0  0  0  0
  -22.3603   -6.5915    0.0000 O   0  0  0  0  0  0  0  0  0  0  0  0
  -20.2063   -5.1389    0.0000 N   0  0  0  0  0  0  0  0  0  0  0  0
  -21.0449   -3.8952    0.0000 C   0  0  0  0  0  0  0  0  0  0  0  0
  -22.2584   -3.0134    0.0000 C   0  0  0  0  0  0  0  0  0  0  0  0
  -22.1015   -1.5217    0.0000 C   0  0  0  0  0  0  0  0  0  0  0  0
  -23.3149   -0.6399    0.0000 C   0  0  0  0  0  0  0  0  0  0  0  0
  -23.1580    0.8519    0.0000 C   0  0  0  0  0  0  0  0  0  0  0  0
  -24.3714    1.7337    0.0000 N   0  0  0  0  0  0  0  0  0  0  0  0
  -20.3873   -2.5471    0.0000 C   0  0  0  0  0  0  0  0  0  0  0  0
  -18.8909   -2.4426    0.0000 O   0  0  0  0  0  0  0  0  0  0  0  0
  -21.2259   -1.3035    0.0000 N   0  0  0  0  0  0  0  0  0  0  0  0
  -20.5683    0.0447    0.0000 C   0  0  0  0  0  0  0  0  0  0  0  0
  -19.4892    1.0866    0.0000 C   0  0  0  0  0  0  0  0  0  0  0  0
  -18.0473    0.6730    0.0000 C   0  0  0  0  0  0  0  0  0  0  0  0
  -16.9682    1.7149    0.0000 C   0  0  0  0  0  0  0  0  0  0  0  0
  -15.5263    1.3013    0.0000 N   0  0  0  0  0  0  0  0  0  0  0  0
  -14.4472    2.3432    0.0000 C   0  0  0  0  0  0  0  0  0  0  0  0
  -13.0054    1.9296    0.0000 N   0  0  0  0  0  0  0  0  0  0  0  0
  -14.8100    3.7987    0.0000 N   0  0  0  0  0  0  0  0  0  0  0  0
  -21.4069    1.2883    0.0000 C   0  0  0  0  0  0  0  0  0  0  0  0
  -22.8841    1.5490    0.0000 O   0  0  0  0  0  0  0  0  0  0  0  0
  -20.7493    2.6364    0.0000 N   0  0  0  0  0  0  0  0  0  0  0  0
  -21.5879    3.8801    0.0000 C   0  0  0  0  0  0  0  0  0  0  0  0
  -22.8014    4.7619    0.0000 C   0  0  0  0  0  0  0  0  0  0  0  0
  -22.8275    6.2616    0.0000 C   0  0  0  0  0  0  0  0  0  0  0  0
  -20.9303    5.2282    0.0000 C   0  0  0  0  0  0  0  0  0  0  0  0
  -19.4339    5.3327    0.0000 O   0  0  0  0  0  0  0  0  0  0  0  0
  -21.7689    6.4718    0.0000 N   0  0  0  0  0  0  0  0  0  0  0  0
  -21.1113    7.8200    0.0000 C   0  0  0  0  0  0  0  0  0  0  0  0
  -20.0322    8.8619    0.0000 C   0  0  0  0  0  0  0  0  0  0  0  0
  -18.5903    8.4483    0.0000 C   0  0  0  0  0  0  0  0  0  0  0  0
  -17.5112    9.4902    0.0000 C   0  0  0  0  0  0  0  0  0  0  0  0
  -16.0693    9.0766    0.0000 C   0  0  0  0  0  0  0  0  0  0  0  0
  -14.9902   10.1185    0.0000 N   0  0  0  0  0  0  0  0  0  0  0  0
  -21.9499    9.0636    0.0000 C   0  0  0  0  0  0  0  0  0  0  0  0
  -23.4463    8.9591    0.0000 O   0  0  0  0  0  0  0  0  0  0  0  0
  -21.2923   10.4117    0.0000 N   0  0  0  0  0  0  0  0  0  0  0  0
  -22.1309   11.6554    0.0000 C   0  0  0  0  0  0  0  0  0  0  0  0
  -23.3444   12.5371    0.0000 C   0  0  0  0  0  0  0  0  0  0  0  0
  -23.1875   14.0289    0.0000 C   0  0  0  0  0  0  0  0  0  0  0  0
  -24.4009   14.9107    0.0000 C   0  0  0  0  0  0  0  0  0  0  0  0
  -22.5298   15.3770    0.0000 C   0  0  0  0  0  0  0  0  0  0  0  0
  -21.4733   13.0035    0.0000 C   0  0  0  0  0  0  0  0  0  0  0  0
  -19.9769   13.1080    0.0000 O   0  0  0  0  0  0  0  0  0  0  0  0
  -22.3119   14.2471    0.0000 N   0  0  0  0  0  0  0  0  0  0  0  0
  -21.6543   15.5953    0.0000 C   0  0  0  0  0  0  0  0  0  0  0  0
  -20.5752   16.6371    0.0000 C   0  0  0  0  0  0  0  0  0  0  0  0
  -19.1333   16.2236    0.0000 C   0  0  0  0  0  0  0  0  0  0  0  0
  -18.0542   17.2655    0.0000 O   0  0  0  0  0  0  0  0  0  0  0  0
  -18.7706   14.7681    0.0000 O   0  0  0  0  0  0  0  0  0  0  0  0
  -22.4929   16.8389    0.0000 C   0  0  0  0  0  0  0  0  0  0  0  0
  -22.0045   18.2571    0.0000 O   0  0  0  0  0  0  0  0  0  0  0  0
  -23.9909   16.9176    0.0000 O   0  0  0  0  0  0  0  0  0  0  0  0
   33.1487   -3.8693    0.0000 H   0  0  0  0  0  0  0  0  0  0  0  0
   32.3377   -8.2880    0.0000 H   0  0  0  0  0  0  0  0  0  0  0  0
   34.5413  -10.3237    0.0000 H   0  0  0  0  0  0  0  0  0  0  0  0
   35.4998   -4.4348    0.0000 H   0  0  0  0  0  0  0  0  0  0  0  0
   42.6614   -4.2742    0.0000 H   0  0  0  0  0  0  0  0  0  0  0  0
   42.5949   -9.4699    0.0000 H   0  0  0  0  0  0  0  0  0  0  0  0
   39.5952   -9.4316    0.0000 H   0  0  0  0  0  0  0  0  0  0  0  0
   44.8614   -8.1998    0.0000 H   0  0  0  0  0  0  0  0  0  0  0  0
   35.1288   -6.7762    0.0000 H   0  0  0  0  0  0  0  0  0  0  0  0
   33.6756   -3.9765    0.0000 H   0  0  0  0  0  0  0  0  0  0  0  0
   38.1949   -1.6188    0.0000 H   0  0  0  0  0  0  0  0  0  0  0  0
   35.9617   -0.2911    0.0000 H   0  0  0  0  0  0  0  0  0  0  0  0
   30.7953   -3.3261    0.0000 H   0  0  0  0  0  0  0  0  0  0  0  0
   29.7195   -6.5677    0.0000 H   0  0  0  0  0  0  0  0  0  0  0  0
   27.9582   -6.2815    0.0000 H   0  0  0  0  0  0  0  0  0  0  0  0
   29.1242   -3.3083    0.0000 H   0  0  0  0  0  0  0  0  0  0  0  0
   27.2433   -2.8832    0.0000 H   0  0  0  0  0  0  0  0  0  0  0  0
   25.7269   -2.1808    0.0000 H   0  0  0  0  0  0  0  0  0  0  0  0
   23.7742   -2.6013    0.0000 H   0  0  0  0  0  0  0  0  0  0  0  0
   24.8409   -6.9105    0.0000 H   0  0  0  0  0  0  0  0  0  0  0  0
   23.2837   -6.0391    0.0000 H   0  0  0  0  0  0  0  0  0  0  0  0
   28.3151   -7.0810    0.0000 H   0  0  0  0  0  0  0  0  0  0  0  0
   26.0256   -8.0892    0.0000 H   0  0  0  0  0  0  0  0  0  0  0  0
   22.5895   -1.4226    0.0000 H   0  0  0  0  0  0  0  0  0  0  0  0
   20.7866   -1.2010    0.0000 H   0  0  0  0  0  0  0  0  0  0  0  0
   20.1393   -5.5639    0.0000 H   0  0  0  0  0  0  0  0  0  0  0  0
   18.9988   -4.3940    0.0000 H   0  0  0  0  0  0  0  0  0  0  0  0
   23.3516   -4.7520    0.0000 H   0  0  0  0  0  0  0  0  0  0  0  0
   22.5281   -3.3408    0.0000 H   0  0  0  0  0  0  0  0  0  0  0  0
   19.9006    0.3630    0.0000 H   0  0  0  0  0  0  0  0  0  0  0  0
   18.1345    1.2962    0.0000 H   0  0  0  0  0  0  0  0  0  0  0  0
   16.0340   -2.5823    0.0000 H   0  0  0  0  0  0  0  0  0  0  0  0
   15.6093   -0.8491    0.0000 H   0  0  0  0  0  0  0  0  0  0  0  0
   19.1869   -1.4186    0.0000 H   0  0  0  0  0  0  0  0  0  0  0  0
   18.5867   -5.1640    0.0000 H   0  0  0  0  0  0  0  0  0  0  0  0
   16.9529   -5.1715    0.0000 H   0  0  0  0  0  0  0  0  0  0  0  0
   16.3202   -3.5031    0.0000 H   0  0  0  0  0  0  0  0  0  0  0  0
   19.6678   -4.5142    0.0000 H   0  0  0  0  0  0  0  0  0  0  0  0
   20.9145   -3.4582    0.0000 H   0  0  0  0  0  0  0  0  0  0  0  0
   19.6279   -1.5338    0.0000 H   0  0  0  0  0  0  0  0  0  0  0  0
   18.0282    2.7827    0.0000 H   0  0  0  0  0  0  0  0  0  0  0  0
   16.5240    1.9891    0.0000 H   0  0  0  0  0  0  0  0  0  0  0  0
   15.7630    0.7866    0.0000 H   0  0  0  0  0  0  0  0  0  0  0  0
   15.7318    0.2009    0.0000 H   0  0  0  0  0  0  0  0  0  0  0  0
   14.9848   -0.5936    0.0000 H   0  0  0  0  0  0  0  0  0  0  0  0
   14.8810   -0.7255    0.0000 H   0  0  0  0  0  0  0  0  0  0  0  0
   13.9636   -1.8134    0.0000 H   0  0  0  0  0  0  0  0  0  0  0  0
   13.5817   -2.1443    0.0000 H   0  0  0  0  0  0  0  0  0  0  0  0
   12.5559   -2.8746    0.0000 H   0  0  0  0  0  0  0  0  0  0  0  0
   12.1182   -3.1273    0.0000 H   0  0  0  0  0  0  0  0  0  0  0  0
   10.9728   -3.6502    0.0000 H   0  0  0  0  0  0  0  0  0  0  0  0
   10.4952   -3.8155    0.0000 H   0  0  0  0  0  0  0  0  0  0  0  0
    9.0943   -4.0658    0.0000 H   0  0  0  0  0  0  0  0  0  0  0  0
    8.1490   -4.3524    0.0000 H   0  0  0  0  0  0  0  0  0  0  0  0
   18.1224    3.2714    0.0000 H   0  0  0  0  0  0  0  0  0  0  0  0
   18.0966    4.9051    0.0000 H   0  0  0  0  0  0  0  0  0  0  0  0
   16.4156    5.5036    0.0000 H   0  0  0  0  0  0  0  0  0  0  0  0
   16.9472    6.6217    0.0000 H   0  0  0  0  0  0  0  0  0  0  0  0
   16.4626    7.5202    0.0000 H   0  0  0  0  0  0  0  0  0  0  0  0
   16.3404   10.6059    0.0000 H   0  0  0  0  0  0  0  0  0  0  0  0
   14.7749   10.1383    0.0000 H   0  0  0  0  0  0  0  0  0  0  0  0
   18.7523    8.3341    0.0000 H   0  0  0  0  0  0  0  0  0  0  0  0
   17.3465    7.5016    0.0000 H   0  0  0  0  0  0  0  0  0  0  0  0
   18.7206   11.6474    0.0000 H   0  0  0  0  0  0  0  0  0  0  0  0
   17.0452   11.0332    0.0000 H   0  0  0  0  0  0  0  0  0  0  0  0
   20.3899    8.6675    0.0000 H   0  0  0  0  0  0  0  0  0  0  0  0
   23.0583   12.2910    0.0000 H   0  0  0  0  0  0  0  0  0  0  0  0
   22.7701    9.7090    0.0000 H   0  0  0  0  0  0  0  0  0  0  0  0
   20.9663   13.8316    0.0000 H   0  0  0  0  0  0  0  0  0  0  0  0
   18.5861   12.7902    0.0000 H   0  0  0  0  0  0  0  0  0  0  0  0
   14.4995   11.5064    0.0000 H   0  0  0  0  0  0  0  0  0  0  0  0
   13.6639   12.0332    0.0000 H   0  0  0  0  0  0  0  0  0  0  0  0
   12.1317   14.4308    0.0000 H   0  0  0  0  0  0  0  0  0  0  0  0
   10.8889   13.1503    0.0000 H   0  0  0  0  0  0  0  0  0  0  0  0
   13.8149   15.1137    0.0000 H   0  0  0  0  0  0  0  0  0  0  0  0
   10.0927   14.0983    0.0000 H   0  0  0  0  0  0  0  0  0  0  0  0
    8.9299   14.1437    0.0000 H   0  0  0  0  0  0  0  0  0  0  0  0
    6.3447   15.3323    0.0000 H   0  0  0  0  0  0  0  0  0  0  0  0
    5.9914   13.5832    0.0000 H   0  0  0  0  0  0  0  0  0  0  0  0
   10.5040   14.2698    0.0000 H   0  0  0  0  0  0  0  0  0  0  0  0
   11.8909   16.7450    0.0000 H   0  0  0  0  0  0  0  0  0  0  0  0
   10.4325   19.3667    0.0000 H   0  0  0  0  0  0  0  0  0  0  0  0
    7.4329   19.4145    0.0000 H   0  0  0  0  0  0  0  0  0  0  0  0
    5.8916   16.8407    0.0000 H   0  0  0  0  0  0  0  0  0  0  0  0
    4.8091   13.9502    0.0000 H   0  0  0  0  0  0  0  0  0  0  0  0
    3.8063   13.3597    0.0000 H   0  0  0  0  0  0  0  0  0  0  0  0
    0.9889   12.9620    0.0000 H   0  0  0  0  0  0  0  0  0  0  0  0
    1.6374   11.2996    0.0000 H   0  0  0  0  0  0  0  0  0  0  0  0
    5.0623   14.3169    0.0000 H   0  0  0  0  0  0  0  0  0  0  0  0
    4.8909   17.1489    0.0000 H   0  0  0  0  0  0  0  0  0  0  0  0
    2.2467   18.5660    0.0000 H   0  0  0  0  0  0  0  0  0  0  0  0
   -0.3027   16.9845    0.0000 H   0  0  0  0  0  0  0  0  0  0  0  0
   -0.2077   13.9860    0.0000 H   0  0  0  0  0  0  0  0  0  0  0  0
    0.3224   10.8323    0.0000 H   0  0  0  0  0  0  0  0  0  0  0  0
   -0.0800    9.9302    0.0000 H   0  0  0  0  0  0  0  0  0  0  0  0
   -1.6554    9.7600    0.0000 H   0  0  0  0  0  0  0  0  0  0  0  0
   -2.2352    8.0724    0.0000 H   0  0  0  0  0  0  0  0  0  0  0  0
   -0.7909    7.0245    0.0000 H   0  0  0  0  0  0  0  0  0  0  0  0
   -1.6159    6.1015    0.0000 H   0  0  0  0  0  0  0  0  0  0  0  0
   -1.4041    5.1029    0.0000 H   0  0  0  0  0  0  0  0  0  0  0  0
   -2.1562    2.1077    0.0000 H   0  0  0  0  0  0  0  0  0  0  0  0
   -0.5224    2.1153    0.0000 H   0  0  0  0  0  0  0  0  0  0  0  0
   -2.2470    5.3697    0.0000 H   0  0  0  0  0  0  0  0  0  0  0  0
   -5.3661    3.4475    0.0000 H   0  0  0  0  0  0  0  0  0  0  0  0
   -4.7334    1.7790    0.0000 H   0  0  0  0  0  0  0  0  0  0  0  0
   -2.9528    1.8963    0.0000 H   0  0  0  0  0  0  0  0  0  0  0  0
   -5.3064    4.6997    0.0000 H   0  0  0  0  0  0  0  0  0  0  0  0
   -4.5176    6.3003    0.0000 H   0  0  0  0  0  0  0  0  0  0  0  0
   -2.6367    5.8753    0.0000 H   0  0  0  0  0  0  0  0  0  0  0  0
   -0.7174    0.8927    0.0000 H   0  0  0  0  0  0  0  0  0  0  0  0
    2.2985   -2.4165    0.0000 H   0  0  0  0  0  0  0  0  0  0  0  0
    1.2535   -1.7140    0.0000 H   0  0  0  0  0  0  0  0  0  0  0  0
    3.6217   -3.2994    0.0000 H   0  0  0  0  0  0  0  0  0  0  0  0
    2.6458   -2.8127    0.0000 H   0  0  0  0  0  0  0  0  0  0  0  0
    5.4521   -3.8920    0.0000 H   0  0  0  0  0  0  0  0  0  0  0  0
    4.0814   -3.5094    0.0000 H   0  0  0  0  0  0  0  0  0  0  0  0
    6.3658   -4.2673    0.0000 H   0  0  0  0  0  0  0  0  0  0  0  0
   -0.9063   -1.2035    0.0000 H   0  0  0  0  0  0  0  0  0  0  0  0
   -1.4479    0.3380    0.0000 H   0  0  0  0  0  0  0  0  0  0  0  0
   -0.2600    1.4597    0.0000 H   0  0  0  0  0  0  0  0  0  0  0  0
   -1.5868   -0.4964    0.0000 H   0  0  0  0  0  0  0  0  0  0  0  0
    0.4742   -3.1896    0.0000 H   0  0  0  0  0  0  0  0  0  0  0  0
   -0.4902   -5.8386    0.0000 H   0  0  0  0  0  0  0  0  0  0  0  0
    0.4741   -4.1687    0.0000 H   0  0  0  0  0  0  0  0  0  0  0  0
   -2.3360   -5.9471    0.0000 H   0  0  0  0  0  0  0  0  0  0  0  0
   -4.4705   -3.3592    0.0000 H   0  0  0  0  0  0  0  0  0  0  0  0
   -7.2468   -3.8484    0.0000 H   0  0  0  0  0  0  0  0  0  0  0  0
   -5.4346   -3.1891    0.0000 H   0  0  0  0  0  0  0  0  0  0  0  0
   -7.4252   -7.1570    0.0000 H   0  0  0  0  0  0  0  0  0  0  0  0
   -6.1175   -7.0198    0.0000 H   0  0  0  0  0  0  0  0  0  0  0  0
  -10.8307   -6.3753    0.0000 H   0  0  0  0  0  0  0  0  0  0  0  0
   -9.4340   -8.1749    0.0000 H   0  0  0  0  0  0  0  0  0  0  0  0
   -7.6745   -5.6473    0.0000 H   0  0  0  0  0  0  0  0  0  0  0  0
   -5.4970   -8.1991    0.0000 H   0  0  0  0  0  0  0  0  0  0  0  0
   -5.5398   -9.0000    0.0000 H   0  0  0  0  0  0  0  0  0  0  0  0
   -8.4564  -11.6772    0.0000 H   0  0  0  0  0  0  0  0  0  0  0  0
   -9.7506  -10.4487    0.0000 H   0  0  0  0  0  0  0  0  0  0  0  0
   -9.5022   -9.3281    0.0000 H   0  0  0  0  0  0  0  0  0  0  0  0
   -6.4615  -12.3481    0.0000 H   0  0  0  0  0  0  0  0  0  0  0  0
   -7.8317  -11.4581    0.0000 H   0  0  0  0  0  0  0  0  0  0  0  0
   -4.4713  -12.5183    0.0000 H   0  0  0  0  0  0  0  0  0  0  0  0
   -3.5070  -10.8483    0.0000 H   0  0  0  0  0  0  0  0  0  0  0  0
   -4.8012   -9.6199    0.0000 H   0  0  0  0  0  0  0  0  0  0  0  0
   -8.3072  -10.9566    0.0000 H   0  0  0  0  0  0  0  0  0  0  0  0
  -10.4416   -8.3687    0.0000 H   0  0  0  0  0  0  0  0  0  0  0  0
  -13.2179   -8.8579    0.0000 H   0  0  0  0  0  0  0  0  0  0  0  0
  -11.4058   -8.1986    0.0000 H   0  0  0  0  0  0  0  0  0  0  0  0
  -13.6457  -10.6568    0.0000 H   0  0  0  0  0  0  0  0  0  0  0  0
  -11.4681  -13.2086    0.0000 H   0  0  0  0  0  0  0  0  0  0  0  0
  -12.4326  -15.8576    0.0000 H   0  0  0  0  0  0  0  0  0  0  0  0
  -11.4682  -14.1876    0.0000 H   0  0  0  0  0  0  0  0  0  0  0  0
  -15.7218  -15.4582    0.0000 H   0  0  0  0  0  0  0  0  0  0  0  0
  -15.3593  -14.1942    0.0000 H   0  0  0  0  0  0  0  0  0  0  0  0
  -15.5439  -18.9478    0.0000 H   0  0  0  0  0  0  0  0  0  0  0  0
  -17.0197  -17.0632    0.0000 H   0  0  0  0  0  0  0  0  0  0  0  0
  -14.2784  -15.9661    0.0000 H   0  0  0  0  0  0  0  0  0  0  0  0
  -16.2300  -13.3894    0.0000 H   0  0  0  0  0  0  0  0  0  0  0  0
  -18.2532  -16.0729    0.0000 H   0  0  0  0  0  0  0  0  0  0  0  0
  -19.6937  -12.4134    0.0000 H   0  0  0  0  0  0  0  0  0  0  0  0
  -18.4029  -11.7080    0.0000 H   0  0  0  0  0  0  0  0  0  0  0  0
  -16.9686  -12.7695    0.0000 H   0  0  0  0  0  0  0  0  0  0  0  0
  -20.8093  -15.2911    0.0000 H   0  0  0  0  0  0  0  0  0  0  0  0
  -19.2108  -16.3697    0.0000 H   0  0  0  0  0  0  0  0  0  0  0  0
  -21.8514  -13.7682    0.0000 H   0  0  0  0  0  0  0  0  0  0  0  0
  -21.2238  -12.6934    0.0000 H   0  0  0  0  0  0  0  0  0  0  0  0
  -19.2957  -12.6597    0.0000 H   0  0  0  0  0  0  0  0  0  0  0  0
  -17.6515  -18.4093    0.0000 H   0  0  0  0  0  0  0  0  0  0  0  0
  -19.4240  -19.3515    0.0000 H   0  0  0  0  0  0  0  0  0  0  0  0
  -20.5989  -19.1863    0.0000 H   0  0  0  0  0  0  0  0  0  0  0  0
  -22.0428  -17.7917    0.0000 H   0  0  0  0  0  0  0  0  0  0  0  0
  -22.2487  -16.6233    0.0000 H   0  0  0  0  0  0  0  0  0  0  0  0
  -21.5339  -14.8980    0.0000 H   0  0  0  0  0  0  0  0  0  0  0  0
  -18.6005  -14.2924    0.0000 H   0  0  0  0  0  0  0  0  0  0  0  0
  -18.2367  -12.4507    0.0000 H   0  0  0  0  0  0  0  0  0  0  0  0
  -21.7000  -12.5731    0.0000 H   0  0  0  0  0  0  0  0  0  0  0  0
  -22.1036   -9.3398    0.0000 H   0  0  0  0  0  0  0  0  0  0  0  0
  -23.1572  -10.3751    0.0000 H   0  0  0  0  0  0  0  0  0  0  0  0
  -22.3731  -12.1369    0.0000 H   0  0  0  0  0  0  0  0  0  0  0  0
  -22.1809   -9.0001    0.0000 H   0  0  0  0  0  0  0  0  0  0  0  0
  -18.8118   -8.6124    0.0000 H   0  0  0  0  0  0  0  0  0  0  0  0
  -17.5043   -7.1023    0.0000 H   0  0  0  0  0  0  0  0  0  0  0  0
  -18.1291   -5.4308    0.0000 H   0  0  0  0  0  0  0  0  0  0  0  0
  -19.9102   -5.5395    0.0000 H   0  0  0  0  0  0  0  0  0  0  0  0
  -18.7338   -4.8527    0.0000 H   0  0  0  0  0  0  0  0  0  0  0  0
  -22.1240   -4.9371    0.0000 H   0  0  0  0  0  0  0  0  0  0  0  0
  -23.7399   -2.7787    0.0000 H   0  0  0  0  0  0  0  0  0  0  0  0
  -22.9161   -4.3616    0.0000 H   0  0  0  0  0  0  0  0  0  0  0  0
  -21.2844   -0.2638    0.0000 H   0  0  0  0  0  0  0  0  0  0  0  0
  -20.6342   -1.2098    0.0000 H   0  0  0  0  0  0  0  0  0  0  0  0
  -24.7964   -0.4051    0.0000 H   0  0  0  0  0  0  0  0  0  0  0  0
  -24.1320   -1.8978    0.0000 H   0  0  0  0  0  0  0  0  0  0  0  0
  -22.6695    2.2701    0.0000 H   0  0  0  0  0  0  0  0  0  0  0  0
  -21.6765    0.6171    0.0000 H   0  0  0  0  0  0  0  0  0  0  0  0
  -24.0338    3.1952    0.0000 H   0  0  0  0  0  0  0  0  0  0  0  0
  -25.8133    2.1473    0.0000 H   0  0  0  0  0  0  0  0  0  0  0  0
  -25.1885    0.4758    0.0000 H   0  0  0  0  0  0  0  0  0  0  0  0
  -22.7031   -1.0428    0.0000 H   0  0  0  0  0  0  0  0  0  0  0  0
  -19.4714   -0.9784    0.0000 H   0  0  0  0  0  0  0  0  0  0  0  0
  -18.8315    2.4347    0.0000 H   0  0  0  0  0  0  0  0  0  0  0  0
  -20.4532    2.2358    0.0000 H   0  0  0  0  0  0  0  0  0  0  0  0
  -16.8339   -0.2088    0.0000 H   0  0  0  0  0  0  0  0  0  0  0  0
  -18.5357   -0.7453    0.0000 H   0  0  0  0  0  0  0  0  0  0  0  0
  -16.3105    3.0630    0.0000 H   0  0  0  0  0  0  0  0  0  0  0  0
  -18.0651    2.7380    0.0000 H   0  0  0  0  0  0  0  0  0  0  0  0
  -15.1636   -0.1542    0.0000 H   0  0  0  0  0  0  0  0  0  0  0  0
  -11.9263    2.9715    0.0000 H   0  0  0  0  0  0  0  0  0  0  0  0
  -12.6426    0.4741    0.0000 H   0  0  0  0  0  0  0  0  0  0  0  0
  -13.7309    4.8405    0.0000 H   0  0  0  0  0  0  0  0  0  0  0  0
  -16.2519    4.2122    0.0000 H   0  0  0  0  0  0  0  0  0  0  0  0
  -19.2768    2.9226    0.0000 H   0  0  0  0  0  0  0  0  0  0  0  0
  -22.7860    2.9775    0.0000 H   0  0  0  0  0  0  0  0  0  0  0  0
  -24.2432    5.1754    0.0000 H   0  0  0  0  0  0  0  0  0  0  0  0
  -23.2898    3.3436    0.0000 H   0  0  0  0  0  0  0  0  0  0  0  0
  -23.8579    7.1354    0.0000 H   0  0  0  0  0  0  0  0  0  0  0  0
  -21.9868    7.6018    0.0000 H   0  0  0  0  0  0  0  0  0  0  0  0
  -21.1772    6.5655    0.0000 H   0  0  0  0  0  0  0  0  0  0  0  0
  -23.2669    6.5505    0.0000 H   0  0  0  0  0  0  0  0  0  0  0  0
  -20.0144    6.7968    0.0000 H   0  0  0  0  0  0  0  0  0  0  0  0
  -19.3745   10.2100    0.0000 H   0  0  0  0  0  0  0  0  0  0  0  0
  -20.9962   10.0111    0.0000 H   0  0  0  0  0  0  0  0  0  0  0  0
  -17.4934    7.4251    0.0000 H   0  0  0  0  0  0  0  0  0  0  0  0
  -19.0787    7.0300    0.0000 H   0  0  0  0  0  0  0  0  0  0  0  0
  -17.0228   10.9084    0.0000 H   0  0  0  0  0  0  0  0  0  0  0  0
  -18.6081   10.5133    0.0000 H   0  0  0  0  0  0  0  0  0  0  0  0
  -14.8559    8.1948    0.0000 H   0  0  0  0  0  0  0  0  0  0  0  0
  -16.5578    7.6583    0.0000 H   0  0  0  0  0  0  0  0  0  0  0  0
  -13.5484    9.7049    0.0000 H   0  0  0  0  0  0  0  0  0  0  0  0
  -14.3326   11.4666    0.0000 H   0  0  0  0  0  0  0  0  0  0  0  0
  -16.0872   11.1416    0.0000 H   0  0  0  0  0  0  0  0  0  0  0  0
  -19.8198   10.6979    0.0000 H   0  0  0  0  0  0  0  0  0  0  0  0
  -23.2100   10.6135    0.0000 H   0  0  0  0  0  0  0  0  0  0  0  0
  -24.8259   12.7719    0.0000 H   0  0  0  0  0  0  0  0  0  0  0  0
  -24.0021   11.1890    0.0000 H   0  0  0  0  0  0  0  0  0  0  0  0
  -21.7202   14.3408    0.0000 H   0  0  0  0  0  0  0  0  0  0  0  0
  -24.6096   16.3961    0.0000 H   0  0  0  0  0  0  0  0  0  0  0  0
  -25.8428   15.3243    0.0000 H   0  0  0  0  0  0  0  0  0  0  0  0
  -25.2180   13.6528    0.0000 H   0  0  0  0  0  0  0  0  0  0  0  0
  -21.1032   15.8405    0.0000 H   0  0  0  0  0  0  0  0  0  0  0  0
  -22.9180   16.8259    0.0000 H   0  0  0  0  0  0  0  0  0  0  0  0
  -23.9105   15.9633    0.0000 H   0  0  0  0  0  0  0  0  0  0  0  0
  -23.7891   14.5078    0.0000 H   0  0  0  0  0  0  0  0  0  0  0  0
  -20.4408   14.7135    0.0000 H   0  0  0  0  0  0  0  0  0  0  0  0
  -19.9175   17.9853    0.0000 H   0  0  0  0  0  0  0  0  0  0  0  0
  -21.5392   17.7864    0.0000 H   0  0  0  0  0  0  0  0  0  0  0  0
  1  2  1  0
  2  3  1  0
  3  4  2  0
  4  5  1  0
  5  6  2  0
  6  7  1  0
  7  8  2  0
  7  9  1  0
  9 10  1  0
 10 11  1  0
 11 12  2  0
  9 13  1  0
 13 14  1  0
 14 15  2  0
 15 16  1  0
 16 17  2  0
 17 18  1  0
 16 19  1  0
 14 20  1  0
 20 21  1  0
 21 22  2  0
 22 23  1  0
 23 24  2  0
 24 25  1  0
 25 26  2  0
 25 27  1  0
  1 28  2  0
  1 29  1  0
 29 30  1  0
 30 31  1  0
 31 32  1  0
 32 33  2  0
 32 34  1  0
 34 35  1  0
 35 36  1  0
 36 37  1  0
 37 38  1  0
 37 39  2  0
 35 40  1  0
 40 41  2  0
 40 42  1  0
 42 43  1  0
 43 44  1  0
 44 45  1  0
 45 46  1  0
 46 47  2  0
 46 48  1  0
 43 49  1  0
 49 50  2  0
 49 51  1  0
 51 52  1  0
 52 53  1  0
 53 54  1  0
 54 55  1  0
 54 56  1  0
 52 57  1  0
 57 58  2  0
 57 59  1  0
 60 59  1  6
 60 61  1  0
 61 62  1  0
 62 63  1  0
 63 64  1  0
 64 65  1  0
 65 66  1  0
 66 67  1  0
 60 68  1  0
 60 69  1  0
 69 70  2  0
 69 71  1  0
 71 72  1  0
 72 73  1  0
 73 74  1  0
 74 75  1  0
 75 76  1  0
 76 77  1  0
 77 78  2  3
 77 79  1  0
 72 80  1  0
 80 81  2  0
 80 82  1  0
 82 83  1  0
 83 84  1  0
 84 85  1  0
 83 86  1  0
 86 87  2  0
 86 88  1  0
 88 89  1  0
 89 90  1  0
 90 91  1  0
 91 92  2  0
 92 93  1  0
 93 94  2  0
 94 95  1  0
 95 96  2  0
 89 97  1  0
 97 98  2  0
 97 99  1  0
 99100  1  0
100101  1  0
101102  1  0
102103  2  0
103104  1  0
104105  2  0
105106  1  0
106107  2  0
100108  1  0
108109  2  0
108110  1  0
110111  1  0
111112  1  0
111113  1  0
113114  2  0
113115  1  0
115116  1  0
116117  1  0
117118  1  0
118119  1  0
118120  1  0
116121  1  0
121122  2  0
121123  1  0
123124  1  0
124125  1  0
125126  1  0
126127  1  0
127128  1  0
124129  1  0
124130  1  1
130131  2  0
130132  1  0
132133  1  0
133134  1  0
134135  1  0
135136  2  0
135137  1  0
133138  1  0
138139  2  0
138140  1  0
140141  1  0
141142  1  0
142143  1  0
143144  1  0
144145  1  0
144146  2  0
141147  1  0
147148  2  0
147149  1  0
149150  1  0
150151  1  0
151152  1  0
151153  1  0
153154  1  0
150155  1  0
155156  2  0
155157  1  0
157158  1  0
158159  1  0
159160  1  0
160161  2  0
160162  1  0
158163  1  0
163164  2  0
163165  1  0
165166  1  0
166167  1  0
167168  1  0
168169  1  0
169170  1  0
169171  2  0
166172  1  0
172173  2  0
172174  1  0
174175  1  0
175176  1  0
176177  1  0
176178  1  0
178179  1  0
175180  1  0
180181  2  0
180182  1  0
182183  1  0
183184  1  0
184185  1  0
185186  1  0
186187  1  0
187188  2  0
187189  1  0
189190  1  0
190191  1  0
190192  1  0
192193  2  0
192194  1  0
194195  1  0
195196  1  0
195197  1  0
197198  2  0
197199  1  0
199200  1  0
200201  1  0
201202  1  0
202203  1  0
203204  1  0
204205  1  0
200206  1  0
206207  2  0
206208  1  0
208209  1  0
209210  1  0
210211  1  0
211212  1  0
212213  1  0
213214  1  0
214215  2  3
214216  1  0
209217  1  0
217218  2  0
217219  1  0
219220  1  0
220221  1  0
221222  1  0
220223  1  0
223224  2  0
223225  1  0
225226  1  0
226227  1  0
227228  1  0
228229  1  0
229230  1  0
230231  1  0
226232  1  0
232233  2  0
232234  1  0
234235  1  0
235236  1  0
236237  1  0
237238  1  0
237239  1  0
235240  1  0
240241  2  0
240242  1  0
242243  1  0
243244  1  0
244245  1  0
245246  2  0
245247  1  0
243248  1  0
248249  2  0
248250  1  0
  8  3  1  0
 96 91  1  0
107102  1  0
186182  1  0
 11  6  1  0
 18 13  2  0
 67128  2  0
 22  9  1  0
 26 21  1  0
  2251  1  0
  4252  1  0
  5253  1  0
  8254  1  0
 15255  1  0
 17256  1  0
 18257  1  0
 19258  1  0
 23259  1  0
 24260  1  0
 26261  1  0
 27262  1  0
 29263  1  0
 30264  1  0
 30265  1  0
 31266  1  0
 31267  1  0
 34268  1  0
 35269  1  1
 36270  1  0
 36271  1  0
 38272  1  0
 38273  1  0
 42274  1  0
 43275  1  1
 44276  1  0
 44277  1  0
 45278  1  0
 45279  1  0
 51280  1  0
 52281  1  1
 53282  1  0
 53283  1  0
 54284  1  0
 55285  1  0
 55286  1  0
 55287  1  0
 56288  1  0
 56289  1  0
 56290  1  0
 59291  1  0
 61292  1  0
 61293  1  0
 62294  1  0
 62295  1  0
 63296  1  0
 63297  1  0
 64298  1  0
 64299  1  0
 65300  1  0
 65301  1  0
 66302  1  0
 66303  1  0
 67304  1  0
 68305  1  0
 68306  1  0
 68307  1  0
 71308  1  0
 72309  1  6
 73310  1  0
 73311  1  0
 74312  1  0
 74313  1  0
 75314  1  0
 75315  1  0
 76316  1  0
 78317  1  0
 78318  1  0
 79319  1  0
 79320  1  0
 82321  1  0
 83322  1  6
 84323  1  0
 84324  1  0
 85325  1  0
 88326  1  0
 89327  1  6
 90328  1  0
 90329  1  0
 92330  1  0
 93331  1  0
 94332  1  0
 95333  1  0
 96334  1  0
 99335  1  0
100336  1  6
101337  1  0
101338  1  0
103339  1  0
104340  1  0
105341  1  0
106342  1  0
107343  1  0
110344  1  0
111345  1  6
112346  1  0
112347  1  0
112348  1  0
115349  1  0
116350  1  6
117351  1  0
117352  1  0
118353  1  0
119354  1  0
119355  1  0
119356  1  0
120357  1  0
120358  1  0
120359  1  0
123360  1  0
125361  1  0
125362  1  0
126363  1  0
126364  1  0
127365  1  0
127366  1  0
128367  1  0
129368  1  0
129369  1  0
129370  1  0
132371  1  0
133372  1  1
134373  1  0
134374  1  0
140375  1  0
141376  1  6
142377  1  0
142378  1  0
143379  1  0
143380  1  0
145381  1  0
145382  1  0
149383  1  0
150384  1  1
151385  1  1
152386  1  0
152387  1  0
152388  1  0
153389  1  0
153390  1  0
154391  1  0
154392  1  0
154393  1  0
157394  1  0
158395  1  6
159396  1  0
159397  1  0
165398  1  0
166399  1  1
167400  1  0
167401  1  0
168402  1  0
168403  1  0
170404  1  0
170405  1  0
174406  1  0
175407  1  6
176408  1  1
177409  1  0
177410  1  0
177411  1  0
178412  1  0
178413  1  0
179414  1  0
179415  1  0
179416  1  0
183417  1  0
183418  1  0
184419  1  0
184420  1  0
185421  1  0
185422  1  0
186423  1  0
189424  1  0
190425  1  1
191426  1  0
191427  1  0
191428  1  0
194429  1  0
195430  1  6
196431  1  0
196432  1  0
196433  1  0
199434  1  0
200435  1  1
201436  1  0
201437  1  0
202438  1  0
202439  1  0
203440  1  0
203441  1  0
204442  1  0
204443  1  0
205444  1  0
205445  1  0
205446  1  0
208447  1  0
209448  1  6
210449  1  0
210450  1  0
211451  1  0
211452  1  0
212453  1  0
212454  1  0
213455  1  0
215456  1  0
215457  1  0
216458  1  0
216459  1  0
219460  1  0
220461  1  1
221462  1  0
221463  1  0
222464  1  0
222465  1  0
222466  1  0
225467  1  0
226468  1  6
227469  1  0
227470  1  0
228471  1  0
228472  1  0
229473  1  0
229474  1  0
230475  1  0
230476  1  0
231477  1  0
231478  1  0
231479  1  0
234480  1  0
235481  1  1
236482  1  0
236483  1  0
237484  1  0
238485  1  0
238486  1  0
238487  1  0
239488  1  0
239489  1  0
239490  1  0
242491  1  0
243492  1  6
244493  1  0
244494  1  0
M  CHG  8  48  -1  78   1 137  -1 162  -1 205   1 215   1 231   1 247  -1
M  CHG  1 250  -1
M  END
