
     RDKit          2D

310317  0  0  0  0  0  0  0  0999 V2000
   21.9766   -1.4548    0.0000 C   0  0  0  0  0  0  0  0  0  0  0  0
   23.0175   -0.3747    0.0000 N   0  0  0  0  0  0  0  0  0  0  0  0
   24.4733   -0.7361    0.0000 C   0  0  0  0  0  0  0  0  0  0  0  0
   24.8882   -2.1776    0.0000 C   0  0  0  0  0  0  0  0  0  0  0  0
   26.3440   -2.5390    0.0000 C   0  0  0  0  0  0  0  0  0  0  0  0
   27.3849   -1.4589    0.0000 C   0  0  0  0  0  0  0  0  0  0  0  0
   26.9700   -0.0175    0.0000 C   0  0  0  0  0  0  0  0  0  0  0  0
   25.5142    0.3439    0.0000 C   0  0  0  0  0  0  0  0  0  0  0  0
   28.2127    0.8226    0.0000 C   0  0  0  0  0  0  0  0  0  0  0  0
   29.3956   -0.0997    0.0000 O   0  0  0  0  0  0  0  0  0  0  0  0
   28.8840   -1.5098    0.0000 C   0  0  0  0  0  0  0  0  0  0  0  0
   29.7241   -2.7525    0.0000 O   0  0  0  0  0  0  0  0  0  0  0  0
   29.5364    1.5281    0.0000 C   0  0  0  0  0  0  0  0  0  0  0  0
   29.5872    3.0272    0.0000 C   0  0  0  0  0  0  0  0  0  0  0  0
   30.9109    3.7328    0.0000 C   0  0  0  0  0  0  0  0  0  0  0  0
   32.1838    2.9392    0.0000 C   0  0  0  0  0  0  0  0  0  0  0  0
   32.1330    1.4401    0.0000 C   0  0  0  0  0  0  0  0  0  0  0  0
   30.8093    0.7345    0.0000 C   0  0  0  0  0  0  0  0  0  0  0  0
   33.5075    3.6447    0.0000 O   0  0  0  0  0  0  0  0  0  0  0  0
   28.3144    3.8208    0.0000 O   0  0  0  0  0  0  0  0  0  0  0  0
   26.9907    3.1153    0.0000 C   0  0  0  0  0  0  0  0  0  0  0  0
   26.9398    1.6162    0.0000 C   0  0  0  0  0  0  0  0  0  0  0  0
   25.6398    1.6102    0.0000 C   0  0  0  0  0  0  0  0  0  0  0  0
   24.9610    2.0335    0.0000 C   0  0  0  0  0  0  0  0  0  0  0  0
   24.9881    2.8330    0.0000 C   0  0  0  0  0  0  0  0  0  0  0  0
   25.6941    3.2093    0.0000 C   0  0  0  0  0  0  0  0  0  0  0  0
   23.1212    3.9970    0.0000 O   0  0  0  0  0  0  0  0  0  0  0  0
   22.3915   -2.8962    0.0000 S   0  0  0  0  0  0  0  0  0  0  0  0
   20.5207   -1.0933    0.0000 N   0  0  0  0  0  0  0  0  0  0  0  0
   19.4798   -2.1734    0.0000 C   0  0  0  0  0  0  0  0  0  0  0  0
   18.0240   -1.8120    0.0000 C   0  0  0  0  0  0  0  0  0  0  0  0
   16.9831   -2.8920    0.0000 C   0  0  0  0  0  0  0  0  0  0  0  0
   17.3825   -3.5820    0.0000 O   0  0  0  0  0  0  0  0  0  0  0  0
   15.5273   -2.5306    0.0000 N   0  0  0  0  0  0  0  0  0  0  0  0
   14.4864   -3.6107    0.0000 C   0  0  0  0  0  0  0  0  0  0  0  0
   15.7308   -4.4482    0.0000 C   0  0  0  0  0  0  0  0  0  0  0  0
   17.0784   -3.7893    0.0000 C   0  0  0  0  0  0  0  0  0  0  0  0
   18.3228   -4.6268    0.0000 N   0  0  0  0  0  0  0  0  0  0  0  0
   17.5405   -2.3623    0.0000 O   0  0  0  0  0  0  0  0  0  0  0  0
   13.1389   -4.2696    0.0000 C   0  0  0  0  0  0  0  0  0  0  0  0
   13.4009   -5.7465    0.0000 O   0  0  0  0  0  0  0  0  0  0  0  0
   11.8945   -3.4321    0.0000 N   0  0  0  0  0  0  0  0  0  0  0  0
   10.5470   -4.0910    0.0000 C   0  0  0  0  0  0  0  0  0  0  0  0
   11.4299   -5.3036    0.0000 C   0  0  0  0  0  0  0  0  0  0  0  0
   12.9215   -5.1453    0.0000 C   0  0  0  0  0  0  0  0  0  0  0  0
   13.8044   -6.3580    0.0000 C   0  0  0  0  0  0  0  0  0  0  0  0
   15.3042   -6.3827    0.0000 O   0  0  0  0  0  0  0  0  0  0  0  0
   13.1957   -7.7289    0.0000 O   0  0  0  0  0  0  0  0  0  0  0  0
    9.0553   -4.2493    0.0000 C   0  0  0  0  0  0  0  0  0  0  0  0
    8.7964   -5.7268    0.0000 O   0  0  0  0  0  0  0  0  0  0  0  0
    8.1724   -3.0366    0.0000 N   0  0  0  0  0  0  0  0  0  0  0  0
    6.6808   -3.1949    0.0000 C   0  0  0  0  0  0  0  0  0  0  0  0
    7.0957   -4.6364    0.0000 C   0  0  0  0  0  0  0  0  0  0  0  0
    8.5515   -4.9978    0.0000 C   0  0  0  0  0  0  0  0  0  0  0  0
    8.9665   -6.4393    0.0000 C   0  0  0  0  0  0  0  0  0  0  0  0
   10.0432   -4.8395    0.0000 C   0  0  0  0  0  0  0  0  0  0  0  0
    5.2250   -2.8335    0.0000 C   0  0  0  0  0  0  0  0  0  0  0  0
    4.4764   -4.1333    0.0000 O   0  0  0  0  0  0  0  0  0  0  0  0
    4.8101   -1.3920    0.0000 N   0  0  0  0  0  0  0  0  0  0  0  0
    3.3543   -1.0306    0.0000 C   0  0  0  0  0  0  0  0  0  0  0  0
    3.2512   -2.5271    0.0000 C   0  0  0  0  0  0  0  0  0  0  0  0
    4.4956   -3.3646    0.0000 C   0  0  0  0  0  0  0  0  0  0  0  0
    4.3924   -4.8611    0.0000 C   0  0  0  0  0  0  0  0  0  0  0  0
    5.6368   -5.6986    0.0000 C   0  0  0  0  0  0  0  0  0  0  0  0
    5.5337   -7.1950    0.0000 N   0  0  0  0  0  0  0  0  0  0  0  0
    2.1099   -0.1931    0.0000 C   0  0  0  0  0  0  0  0  0  0  0  0
    0.9619   -1.1585    0.0000 O   0  0  0  0  0  0  0  0  0  0  0  0
    2.2130    1.3034    0.0000 N   0  0  0  0  0  0  0  0  0  0  0  0
    0.9686    2.1409    0.0000 C   0  0  0  0  0  0  0  0  0  0  0  0
    0.7708    0.6540    0.0000 C   0  0  0  0  0  0  0  0  0  0  0  0
    0.2951   -0.7686    0.0000 C   0  0  0  0  0  0  0  0  0  0  0  0
   -0.4411   -2.0754    0.0000 C   0  0  0  0  0  0  0  0  0  0  0  0
   -1.4114   -3.2193    0.0000 C   0  0  0  0  0  0  0  0  0  0  0  0
   -2.5807   -4.1589    0.0000 C   0  0  0  0  0  0  0  0  0  0  0  0
   -3.9066   -4.8603    0.0000 C   0  0  0  0  0  0  0  0  0  0  0  0
   -5.3414   -5.2980    0.0000 C   0  0  0  0  0  0  0  0  0  0  0  0
    2.2717    2.8840    0.0000 C   0  0  0  0  0  0  0  0  0  0  0  0
    0.8815    3.6384    0.0000 C   0  0  0  0  0  0  0  0  0  0  0  0
    2.3249    4.0464    0.0000 O   0  0  0  0  0  0  0  0  0  0  0  0
    0.5125    5.0923    0.0000 N   0  0  0  0  0  0  0  0  0  0  0  0
   -0.1249    6.4501    0.0000 C   0  0  0  0  0  0  0  0  0  0  0  0
    0.5695    7.7797    0.0000 C   0  0  0  0  0  0  0  0  0  0  0  0
    2.0682    7.8430    0.0000 O   0  0  0  0  0  0  0  0  0  0  0  0
   -1.0078    7.6627    0.0000 C   0  0  0  0  0  0  0  0  0  0  0  0
   -0.0142    8.7864    0.0000 O   0  0  0  0  0  0  0  0  0  0  0  0
   -2.1043    8.6864    0.0000 N   0  0  0  0  0  0  0  0  0  0  0  0
   -3.3746    9.4840    0.0000 C   0  0  0  0  0  0  0  0  0  0  0  0
   -3.5092   10.9779    0.0000 C   0  0  0  0  0  0  0  0  0  0  0  0
   -2.2827   11.8415    0.0000 C   0  0  0  0  0  0  0  0  0  0  0  0
   -0.9216   11.2111    0.0000 C   0  0  0  0  0  0  0  0  0  0  0  0
    0.3049   12.0746    0.0000 C   0  0  0  0  0  0  0  0  0  0  0  0
    0.1702   13.5686    0.0000 C   0  0  0  0  0  0  0  0  0  0  0  0
   -1.1909   14.1990    0.0000 C   0  0  0  0  0  0  0  0  0  0  0  0
   -2.4173   13.3354    0.0000 C   0  0  0  0  0  0  0  0  0  0  0  0
   -4.7730   10.0268    0.0000 C   0  0  0  0  0  0  0  0  0  0  0  0
   -4.5445   11.5093    0.0000 O   0  0  0  0  0  0  0  0  0  0  0  0
   -6.2488   10.2952    0.0000 N   0  0  0  0  0  0  0  0  0  0  0  0
   -7.7487   10.2794    0.0000 C   0  0  0  0  0  0  0  0  0  0  0  0
   -8.6696   11.4634    0.0000 C   0  0  0  0  0  0  0  0  0  0  0  0
   -8.1047   12.8529    0.0000 C   0  0  0  0  0  0  0  0  0  0  0  0
   -6.6188   13.0585    0.0000 C   0  0  0  0  0  0  0  0  0  0  0  0
   -6.0539   14.4480    0.0000 C   0  0  0  0  0  0  0  0  0  0  0  0
   -6.9748   15.6320    0.0000 C   0  0  0  0  0  0  0  0  0  0  0  0
   -8.4607   15.4265    0.0000 C   0  0  0  0  0  0  0  0  0  0  0  0
   -9.0256   14.0369    0.0000 C   0  0  0  0  0  0  0  0  0  0  0  0
   -9.2185    9.9800    0.0000 C   0  0  0  0  0  0  0  0  0  0  0  0
   -9.8278   11.3507    0.0000 O   0  0  0  0  0  0  0  0  0  0  0  0
  -10.6051    9.4079    0.0000 N   0  0  0  0  0  0  0  0  0  0  0  0
  -11.8584    8.5837    0.0000 C   0  0  0  0  0  0  0  0  0  0  0  0
  -13.2732    9.0818    0.0000 C   0  0  0  0  0  0  0  0  0  0  0  0
  -12.9330    7.5372    0.0000 C   0  0  0  0  0  0  0  0  0  0  0  0
  -14.1867    8.3608    0.0000 O   0  0  0  0  0  0  0  0  0  0  0  0
  -13.7902    6.3062    0.0000 N   0  0  0  0  0  0  0  0  0  0  0  0
  -14.3989    4.9353    0.0000 C   0  0  0  0  0  0  0  0  0  0  0  0
  -15.8585    4.5894    0.0000 C   0  0  0  0  0  0  0  0  0  0  0  0
  -16.8878    5.6806    0.0000 C   0  0  0  0  0  0  0  0  0  0  0  0
  -18.3474    5.3347    0.0000 C   0  0  0  0  0  0  0  0  0  0  0  0
  -17.4819    7.0579    0.0000 C   0  0  0  0  0  0  0  0  0  0  0  0
  -14.7372    3.4739    0.0000 C   0  0  0  0  0  0  0  0  0  0  0  0
  -16.2371    3.4890    0.0000 O   0  0  0  0  0  0  0  0  0  0  0  0
  -14.7928    1.9750    0.0000 N   0  0  0  0  0  0  0  0  0  0  0  0
  -14.5637    0.4926    0.0000 C   0  0  0  0  0  0  0  0  0  0  0  0
  -15.6046   -0.5875    0.0000 C   0  0  0  0  0  0  0  0  0  0  0  0
  -17.0604   -0.2261    0.0000 C   0  0  0  0  0  0  0  0  0  0  0  0
  -18.1013   -1.3061    0.0000 C   0  0  0  0  0  0  0  0  0  0  0  0
  -19.5571   -0.9447    0.0000 N   0  0  0  0  0  0  0  0  0  0  0  0
  -20.5980   -2.0248    0.0000 C   0  0  0  0  0  0  0  0  0  0  0  0
  -22.0538   -1.6634    0.0000 N   0  0  0  0  0  0  0  0  0  0  0  0
  -20.1831   -3.4663    0.0000 N   0  0  0  0  0  0  0  0  0  0  0  0
  -14.0582   -0.9197    0.0000 C   0  0  0  0  0  0  0  0  0  0  0  0
  -15.3282   -1.7179    0.0000 O   0  0  0  0  0  0  0  0  0  0  0  0
  -13.2946   -2.2108    0.0000 N   0  0  0  0  0  0  0  0  0  0  0  0
  -12.3004   -3.3340    0.0000 C   0  0  0  0  0  0  0  0  0  0  0  0
  -11.1116   -4.2488    0.0000 C   0  0  0  0  0  0  0  0  0  0  0  0
   -9.7712   -4.9220    0.0000 C   0  0  0  0  0  0  0  0  0  0  0  0
   -8.3276   -5.3294    0.0000 C   0  0  0  0  0  0  0  0  0  0  0  0
   -6.8330   -5.4563    0.0000 C   0  0  0  0  0  0  0  0  0  0  0  0
  -13.7483   -3.7260    0.0000 C   0  0  0  0  0  0  0  0  0  0  0  0
  -12.5921   -4.8053    0.0000 C   0  0  0  0  0  0  0  0  0  0  0  0
  -11.7365   -6.0373    0.0000 O   0  0  0  0  0  0  0  0  0  0  0  0
  -14.0122   -5.2884    0.0000 N   0  0  0  0  0  0  0  0  0  0  0  0
  -14.3040   -6.7597    0.0000 C   0  0  0  0  0  0  0  0  0  0  0  0
  -14.0749   -8.2421    0.0000 C   0  0  0  0  0  0  0  0  0  0  0  0
  -15.2441   -9.1817    0.0000 C   0  0  0  0  0  0  0  0  0  0  0  0
  -15.0150  -10.6641    0.0000 C   0  0  0  0  0  0  0  0  0  0  0  0
  -16.0610  -11.7392    0.0000 N   0  0  0  0  0  0  0  0  0  0  0  0
  -13.6167  -11.2069    0.0000 O   0  0  0  0  0  0  0  0  0  0  0  0
  -15.7241   -7.2427    0.0000 C   0  0  0  0  0  0  0  0  0  0  0  0
  -16.8524   -6.2544    0.0000 O   0  0  0  0  0  0  0  0  0  0  0  0
  -16.0158   -8.7141    0.0000 N   0  0  0  0  0  0  0  0  0  0  0  0
  -17.4359   -9.1971    0.0000 C   0  0  0  0  0  0  0  0  0  0  0  0
  -18.9356   -9.1653    0.0000 C   0  0  0  0  0  0  0  0  0  0  0  0
  -19.4922   -7.7724    0.0000 C   0  0  0  0  0  0  0  0  0  0  0  0
  -20.3557   -9.6484    0.0000 C   0  0  0  0  0  0  0  0  0  0  0  0
  -21.4840   -8.6600    0.0000 C   0  0  0  0  0  0  0  0  0  0  0  0
  -17.7276  -10.6685    0.0000 C   0  0  0  0  0  0  0  0  0  0  0  0
  -18.9887  -11.4808    0.0000 O   0  0  0  0  0  0  0  0  0  0  0  0
  -16.7282  -11.7870    0.0000 O   0  0  0  0  0  0  0  0  0  0  0  0
   22.4299    1.0055    0.0000 H   0  0  0  0  0  0  0  0  0  0  0  0
   23.8473   -3.2576    0.0000 H   0  0  0  0  0  0  0  0  0  0  0  0
   26.7589   -3.9805    0.0000 H   0  0  0  0  0  0  0  0  0  0  0  0
   24.7628    1.6422    0.0000 H   0  0  0  0  0  0  0  0  0  0  0  0
   30.9618    5.2319    0.0000 H   0  0  0  0  0  0  0  0  0  0  0  0
   33.4059    0.6465    0.0000 H   0  0  0  0  0  0  0  0  0  0  0  0
   30.7584   -0.7646    0.0000 H   0  0  0  0  0  0  0  0  0  0  0  0
   34.7804    2.8511    0.0000 H   0  0  0  0  0  0  0  0  0  0  0  0
   25.5653   -0.5885    0.0000 H   0  0  0  0  0  0  0  0  0  0  0  0
   22.9434    1.1653    0.0000 H   0  0  0  0  0  0  0  0  0  0  0  0
   25.7686    5.4080    0.0000 H   0  0  0  0  0  0  0  0  0  0  0  0
   23.1720    5.4961    0.0000 H   0  0  0  0  0  0  0  0  0  0  0  0
   20.1058    0.3481    0.0000 H   0  0  0  0  0  0  0  0  0  0  0  0
   20.7242   -3.0109    0.0000 H   0  0  0  0  0  0  0  0  0  0  0  0
   19.0428   -3.6083    0.0000 H   0  0  0  0  0  0  0  0  0  0  0  0
   18.6328   -0.4410    0.0000 H   0  0  0  0  0  0  0  0  0  0  0  0
   16.7796   -0.9744    0.0000 H   0  0  0  0  0  0  0  0  0  0  0  0
   15.1124   -1.0891    0.0000 H   0  0  0  0  0  0  0  0  0  0  0  0
   13.6035   -2.3980    0.0000 H   0  0  0  0  0  0  0  0  0  0  0  0
   16.6137   -5.6609    0.0000 H   0  0  0  0  0  0  0  0  0  0  0  0
   14.8293   -5.6471    0.0000 H   0  0  0  0  0  0  0  0  0  0  0  0
   19.7406   -4.1371    0.0000 H   0  0  0  0  0  0  0  0  0  0  0  0
   18.2196   -6.1233    0.0000 H   0  0  0  0  0  0  0  0  0  0  0  0
   11.9976   -1.9356    0.0000 H   0  0  0  0  0  0  0  0  0  0  0  0
   10.3109   -2.6097    0.0000 H   0  0  0  0  0  0  0  0  0  0  0  0
   11.8448   -6.7451    0.0000 H   0  0  0  0  0  0  0  0  0  0  0  0
   10.2818   -6.2690    0.0000 H   0  0  0  0  0  0  0  0  0  0  0  0
   14.2690   -4.4864    0.0000 H   0  0  0  0  0  0  0  0  0  0  0  0
   12.8677   -3.6463    0.0000 H   0  0  0  0  0  0  0  0  0  0  0  0
    8.7812   -1.6657    0.0000 H   0  0  0  0  0  0  0  0  0  0  0  0
    6.7840   -1.6985    0.0000 H   0  0  0  0  0  0  0  0  0  0  0  0
    6.9926   -6.1329    0.0000 H   0  0  0  0  0  0  0  0  0  0  0  0
    5.5959   -4.6117    0.0000 H   0  0  0  0  0  0  0  0  0  0  0  0
    9.0137   -3.5708    0.0000 H   0  0  0  0  0  0  0  0  0  0  0  0
   10.2915   -7.1422    0.0000 H   0  0  0  0  0  0  0  0  0  0  0  0
    8.8633   -7.9357    0.0000 H   0  0  0  0  0  0  0  0  0  0  0  0
    7.5575   -6.9538    0.0000 H   0  0  0  0  0  0  0  0  0  0  0  0
   10.9261   -6.0522    0.0000 H   0  0  0  0  0  0  0  0  0  0  0  0
   11.5101   -4.5263    0.0000 H   0  0  0  0  0  0  0  0  0  0  0  0
    9.4556   -3.4594    0.0000 H   0  0  0  0  0  0  0  0  0  0  0  0
    5.8510   -0.3120    0.0000 H   0  0  0  0  0  0  0  0  0  0  0  0
    3.9630    0.3403    0.0000 H   0  0  0  0  0  0  0  0  0  0  0  0
    2.4799   -3.8136    0.0000 H   0  0  0  0  0  0  0  0  0  0  0  0
    1.7954   -2.1657    0.0000 H   0  0  0  0  0  0  0  0  0  0  0  0
    5.9846   -3.5459    0.0000 H   0  0  0  0  0  0  0  0  0  0  0  0
    5.4179   -2.1817    0.0000 H   0  0  0  0  0  0  0  0  0  0  0  0
    3.6212   -6.1476    0.0000 H   0  0  0  0  0  0  0  0  0  0  0  0
    2.9034   -4.6798    0.0000 H   0  0  0  0  0  0  0  0  0  0  0  0
    6.9619   -6.4015    0.0000 H   0  0  0  0  0  0  0  0  0  0  0  0
    6.2456   -4.3277    0.0000 H   0  0  0  0  0  0  0  0  0  0  0  0
    6.7781   -8.0326    0.0000 H   0  0  0  0  0  0  0  0  0  0  0  0
    4.9250   -8.5660    0.0000 H   0  0  0  0  0  0  0  0  0  0  0  0
    4.0447   -7.0138    0.0000 H   0  0  0  0  0  0  0  0  0  0  0  0
    3.6308    1.7931    0.0000 H   0  0  0  0  0  0  0  0  0  0  0  0
    2.2656    0.7790    0.0000 H   0  0  0  0  0  0  0  0  0  0  0  0
    1.6973   -0.5256    0.0000 H   0  0  0  0  0  0  0  0  0  0  0  0
    1.7559   -1.1093    0.0000 H   0  0  0  0  0  0  0  0  0  0  0  0
    1.1391   -2.0086    0.0000 H   0  0  0  0  0  0  0  0  0  0  0  0
    1.0568   -2.1548    0.0000 H   0  0  0  0  0  0  0  0  0  0  0  0
    0.3164   -3.3701    0.0000 H   0  0  0  0  0  0  0  0  0  0  0  0
   -0.0105   -3.7555    0.0000 H   0  0  0  0  0  0  0  0  0  0  0  0
   -0.9126   -4.6340    0.0000 H   0  0  0  0  0  0  0  0  0  0  0  0
   -1.3066   -4.9506    0.0000 H   0  0  0  0  0  0  0  0  0  0  0  0
   -2.3586   -5.6424    0.0000 H   0  0  0  0  0  0  0  0  0  0  0  0
   -2.8054   -5.8787    0.0000 H   0  0  0  0  0  0  0  0  0  0  0  0
   -4.1515   -6.3402    0.0000 H   0  0  0  0  0  0  0  0  0  0  0  0
   -5.0420   -6.7678    0.0000 H   0  0  0  0  0  0  0  0  0  0  0  0
    3.6493    2.2905    0.0000 H   0  0  0  0  0  0  0  0  0  0  0  0
    3.3742    3.9011    0.0000 H   0  0  0  0  0  0  0  0  0  0  0  0
    1.6214    4.2357    0.0000 H   0  0  0  0  0  0  0  0  0  0  0  0
    1.9248    5.5978    0.0000 H   0  0  0  0  0  0  0  0  0  0  0  0
    1.3747    6.4183    0.0000 H   0  0  0  0  0  0  0  0  0  0  0  0
    0.9471    9.2314    0.0000 H   0  0  0  0  0  0  0  0  0  0  0  0
   -0.7083    8.5652    0.0000 H   0  0  0  0  0  0  0  0  0  0  0  0
    2.7626    9.1726    0.0000 H   0  0  0  0  0  0  0  0  0  0  0  0
   -1.0514    9.7548    0.0000 H   0  0  0  0  0  0  0  0  0  0  0  0
   -2.0958   10.2680    0.0000 H   0  0  0  0  0  0  0  0  0  0  0  0
   -3.9764   12.4033    0.0000 H   0  0  0  0  0  0  0  0  0  0  0  0
   -5.0089   10.9480    0.0000 H   0  0  0  0  0  0  0  0  0  0  0  0
   -0.6059    9.7447    0.0000 H   0  0  0  0  0  0  0  0  0  0  0  0
    1.6660   11.4442    0.0000 H   0  0  0  0  0  0  0  0  0  0  0  0
    1.3967   14.4321    0.0000 H   0  0  0  0  0  0  0  0  0  0  0  0
   -1.3255   15.6929    0.0000 H   0  0  0  0  0  0  0  0  0  0  0  0
   -3.7784   13.9658    0.0000 H   0  0  0  0  0  0  0  0  0  0  0  0
   -5.9407   11.7632    0.0000 H   0  0  0  0  0  0  0  0  0  0  0  0
   -7.0968   11.6303    0.0000 H   0  0  0  0  0  0  0  0  0  0  0  0
   -9.8333   12.4099    0.0000 H   0  0  0  0  0  0  0  0  0  0  0  0
   -9.9150   10.6274    0.0000 H   0  0  0  0  0  0  0  0  0  0  0  0
   -5.5604   11.9955    0.0000 H   0  0  0  0  0  0  0  0  0  0  0  0
   -4.5681   14.6536    0.0000 H   0  0  0  0  0  0  0  0  0  0  0  0
   -6.4099   17.0216    0.0000 H   0  0  0  0  0  0  0  0  0  0  0  0
   -9.3816   16.6105    0.0000 H   0  0  0  0  0  0  0  0  0  0  0  0
  -10.5115   13.8314    0.0000 H   0  0  0  0  0  0  0  0  0  0  0  0
  -11.3064   10.7338    0.0000 H   0  0  0  0  0  0  0  0  0  0  0  0
  -12.0403   10.0726    0.0000 H   0  0  0  0  0  0  0  0  0  0  0  0
  -13.5492   10.5562    0.0000 H   0  0  0  0  0  0  0  0  0  0  0  0
  -14.7639    9.2490    0.0000 H   0  0  0  0  0  0  0  0  0  0  0  0
  -13.8690    7.7052    0.0000 H   0  0  0  0  0  0  0  0  0  0  0  0
  -14.9976    7.1963    0.0000 H   0  0  0  0  0  0  0  0  0  0  0  0
  -15.2091    6.1977    0.0000 H   0  0  0  0  0  0  0  0  0  0  0  0
  -17.1118    3.7652    0.0000 H   0  0  0  0  0  0  0  0  0  0  0  0
  -15.6154    3.1093    0.0000 H   0  0  0  0  0  0  0  0  0  0  0  0
  -15.8712    6.7835    0.0000 H   0  0  0  0  0  0  0  0  0  0  0  0
  -19.5020    6.2922    0.0000 H   0  0  0  0  0  0  0  0  0  0  0  0
  -19.6007    4.5105    0.0000 H   0  0  0  0  0  0  0  0  0  0  0  0
  -17.9257    3.8952    0.0000 H   0  0  0  0  0  0  0  0  0  0  0  0
  -18.9394    7.4124    0.0000 H   0  0  0  0  0  0  0  0  0  0  0  0
  -17.5690    8.5554    0.0000 H   0  0  0  0  0  0  0  0  0  0  0  0
  -16.0223    7.4038    0.0000 H   0  0  0  0  0  0  0  0  0  0  0  0
  -16.2897    2.0710    0.0000 H   0  0  0  0  0  0  0  0  0  0  0  0
  -15.9278    1.1165    0.0000 H   0  0  0  0  0  0  0  0  0  0  0  0
  -16.2133   -1.9584    0.0000 H   0  0  0  0  0  0  0  0  0  0  0  0
  -14.5998   -1.7013    0.0000 H   0  0  0  0  0  0  0  0  0  0  0  0
  -18.3048    0.6115    0.0000 H   0  0  0  0  0  0  0  0  0  0  0  0
  -16.8015    1.2514    0.0000 H   0  0  0  0  0  0  0  0  0  0  0  0
  -18.7100   -2.6771    0.0000 H   0  0  0  0  0  0  0  0  0  0  0  0
  -16.9683   -2.2891    0.0000 H   0  0  0  0  0  0  0  0  0  0  0  0
  -19.9720    0.4968    0.0000 H   0  0  0  0  0  0  0  0  0  0  0  0
  -23.0947   -2.7434    0.0000 H   0  0  0  0  0  0  0  0  0  0  0  0
  -22.4687   -0.2219    0.0000 H   0  0  0  0  0  0  0  0  0  0  0  0
  -21.2240   -4.5463    0.0000 H   0  0  0  0  0  0  0  0  0  0  0  0
  -18.7273   -3.8277    0.0000 H   0  0  0  0  0  0  0  0  0  0  0  0
  -14.6058   -2.9393    0.0000 H   0  0  0  0  0  0  0  0  0  0  0  0
  -11.1196   -5.7487    0.0000 H   0  0  0  0  0  0  0  0  0  0  0  0
  -12.2597   -5.2142    0.0000 H   0  0  0  0  0  0  0  0  0  0  0  0
   -9.6770   -6.4191    0.0000 H   0  0  0  0  0  0  0  0  0  0  0  0
  -10.7158   -6.0872    0.0000 H   0  0  0  0  0  0  0  0  0  0  0  0
   -7.7776   -6.7250    0.0000 H   0  0  0  0  0  0  0  0  0  0  0  0
   -9.1906   -6.5563    0.0000 H   0  0  0  0  0  0  0  0  0  0  0  0
   -6.8172   -6.9562    0.0000 H   0  0  0  0  0  0  0  0  0  0  0  0
  -14.4722   -5.0397    0.0000 H   0  0  0  0  0  0  0  0  0  0  0  0
  -15.2429   -3.5991    0.0000 H   0  0  0  0  0  0  0  0  0  0  0  0
  -14.2404   -2.3090    0.0000 H   0  0  0  0  0  0  0  0  0  0  0  0
  -15.2527   -4.4449    0.0000 H   0  0  0  0  0  0  0  0  0  0  0  0
  -12.8043   -6.7915    0.0000 H   0  0  0  0  0  0  0  0  0  0  0  0
  -13.3526   -9.5568    0.0000 H   0  0  0  0  0  0  0  0  0  0  0  0
  -12.6548   -7.7591    0.0000 H   0  0  0  0  0  0  0  0  0  0  0  0
  -16.6642   -9.6648    0.0000 H   0  0  0  0  0  0  0  0  0  0  0  0
  -16.4992   -8.3602    0.0000 H   0  0  0  0  0  0  0  0  0  0  0  0
  -15.9552  -13.0861    0.0000 H   0  0  0  0  0  0  0  0  0  0  0  0
  -17.7016  -11.4493    0.0000 H   0  0  0  0  0  0  0  0  0  0  0  0
  -15.1601   -9.9461    0.0000 H   0  0  0  0  0  0  0  0  0  0  0  0
  -17.4826   -7.6979    0.0000 H   0  0  0  0  0  0  0  0  0  0  0  0
  -18.8889  -10.6646    0.0000 H   0  0  0  0  0  0  0  0  0  0  0  0
  -21.1508   -7.6155    0.0000 H   0  0  0  0  0  0  0  0  0  0  0  0
  -19.8870   -6.3683    0.0000 H   0  0  0  0  0  0  0  0  0  0  0  0
  -18.3072   -7.1981    0.0000 H   0  0  0  0  0  0  0  0  0  0  0  0
  -21.5249  -10.5880    0.0000 H   0  0  0  0  0  0  0  0  0  0  0  0
  -19.7990  -11.0412    0.0000 H   0  0  0  0  0  0  0  0  0  0  0  0
  -22.9041   -9.1430    0.0000 H   0  0  0  0  0  0  0  0  0  0  0  0
  -22.2063   -7.3454    0.0000 H   0  0  0  0  0  0  0  0  0  0  0  0
  -20.5769   -7.4654    0.0000 H   0  0  0  0  0  0  0  0  0  0  0  0
  1  2  1  0
  2  3  1  0
  3  4  2  0
  4  5  1  0
  5  6  2  0
  6  7  1  0
  7  8  2  0
  7  9  1  0
  9 10  1  0
 10 11  1  0
 11 12  2  0
  9 13  1  0
 13 14  1  0
 14 15  2  0
 15 16  1  0
 16 17  2  0
 17 18  1  0
 16 19  1  0
 14 20  1  0
 20 21  1  0
 21 22  2  0
 22 23  1  0
 23 24  2  0
 24 25  1  0
 25 26  2  0
 25 27  1  0
  1 28  2  0
  1 29  1  0
 29 30  1  0
 30 31  1  0
 31 32  1  0
 32 33  2  0
 32 34  1  0
 34 35  1  0
 35 36  1  0
 36 37  1  0
 37 38  1  0
 37 39  2  0
 35 40  1  0
 40 41  2  0
 40 42  1  0
 42 43  1  0
 43 44  1  0
 44 45  1  0
 45 46  1  0
 46 47  2  0
 46 48  1  0
 43 49  1  0
 49 50  2  0
 49 51  1  0
 51 52  1  0
 52 53  1  0
 53 54  1  0
 54 55  1  0
 54 56  1  0
 52 57  1  0
 57 58  2  0
 57 59  1  0
 59 60  1  0
 60 61  1  0
 61 62  1  0
 62 63  1  0
 63 64  1  0
 64 65  1  0
 60 66  1  0
 66 67  2  0
 66 68  1  0
 69 68  1  6
 69 70  1  0
 70 71  1  0
 71 72  1  0
 72 73  1  0
 73 74  1  0
 74 75  1  0
 75 76  1  0
 69 77  1  0
 69 78  1  0
 78 79  2  0
 78 80  1  0
 80 81  1  0
 81 82  1  0
 82 83  1  0
 81 84  1  0
 84 85  2  0
 84 86  1  0
 86 87  1  0
 87 88  1  0
 88 89  1  0
 89 90  2  0
 90 91  1  0
 91 92  2  0
 92 93  1  0
 93 94  2  0
 87 95  1  0
 95 96  2  0
 95 97  1  0
 97 98  1  0
 98 99  1  0
 99100  1  0
100101  2  0
101102  1  0
102103  2  0
103104  1  0
104105  2  0
 98106  1  0
106107  2  0
106108  1  0
108109  1  0
109110  1  0
109111  1  0
111112  2  0
111113  1  0
113114  1  0
114115  1  0
115116  1  0
116117  1  0
116118  1  0
114119  1  0
119120  2  0
119121  1  0
121122  1  0
122123  1  0
123124  1  0
124125  1  0
125126  1  0
126127  1  0
127128  2  3
127129  1  0
122130  1  0
130131  2  0
130132  1  0
132133  1  0
133134  1  0
134135  1  0
135136  1  0
136137  1  0
133138  1  0
133139  1  1
139140  2  0
139141  1  0
141142  1  0
142143  1  0
143144  1  0
144145  1  0
145146  1  0
145147  2  0
142148  1  0
148149  2  0
148150  1  0
150151  1  0
151152  1  0
152153  1  0
152154  1  0
154155  1  0
151156  1  0
156157  2  0
156158  1  0
  8  3  1  0
 94 89  1  0
105100  1  0
 11  6  1  0
 18 13  2  0
 76137  2  0
 22  9  1  0
 26 21  1  0
  2159  1  0
  4160  1  0
  5161  1  0
  8162  1  0
 15163  1  0
 17164  1  0
 18165  1  0
 19166  1  0
 23167  1  0
 24168  1  0
 26169  1  0
 27170  1  0
 29171  1  0
 30172  1  0
 30173  1  0
 31174  1  0
 31175  1  0
 34176  1  0
 35177  1  1
 36178  1  0
 36179  1  0
 38180  1  0
 38181  1  0
 42182  1  0
 43183  1  1
 44184  1  0
 44185  1  0
 45186  1  0
 45187  1  0
 51188  1  0
 52189  1  1
 53190  1  0
 53191  1  0
 54192  1  0
 55193  1  0
 55194  1  0
 55195  1  0
 56196  1  0
 56197  1  0
 56198  1  0
 59199  1  0
 60200  1  1
 61201  1  0
 61202  1  0
 62203  1  0
 62204  1  0
 63205  1  0
 63206  1  0
 64207  1  0
 64208  1  0
 65209  1  0
 65210  1  0
 65211  1  0
 68212  1  0
 70213  1  0
 70214  1  0
 71215  1  0
 71216  1  0
 72217  1  0
 72218  1  0
 73219  1  0
 73220  1  0
 74221  1  0
 74222  1  0
 75223  1  0
 75224  1  0
 76225  1  0
 77226  1  0
 77227  1  0
 77228  1  0
 80229  1  0
 81230  1  6
 82231  1  0
 82232  1  0
 83233  1  0
 86234  1  0
 87235  1  6
 88236  1  0
 88237  1  0
 90238  1  0
 91239  1  0
 92240  1  0
 93241  1  0
 94242  1  0
 97243  1  0
 98244  1  6
 99245  1  0
 99246  1  0
101247  1  0
102248  1  0
103249  1  0
104250  1  0
105251  1  0
108252  1  0
109253  1  6
110254  1  0
110255  1  0
110256  1  0
113257  1  0
114258  1  6
115259  1  0
115260  1  0
116261  1  0
117262  1  0
117263  1  0
117264  1  0
118265  1  0
118266  1  0
118267  1  0
121268  1  0
122269  1  6
123270  1  0
123271  1  0
124272  1  0
124273  1  0
125274  1  0
125275  1  0
126276  1  0
128277  1  0
128278  1  0
129279  1  0
129280  1  0
132281  1  0
134282  1  0
134283  1  0
135284  1  0
135285  1  0
136286  1  0
136287  1  0
137288  1  0
138289  1  0
138290  1  0
138291  1  0
141292  1  0
142293  1  1
143294  1  0
143295  1  0
144296  1  0
144297  1  0
146298  1  0
146299  1  0
150300  1  0
151301  1  6
152302  1  1
153303  1  0
153304  1  0
153305  1  0
154306  1  0
154307  1  0
155308  1  0
155309  1  0
155310  1  0
M  CHG  4  48  -1  65   1 128   1 158  -1
M  END
