
     RDKit          2D

343349  0  0  0  0  0  0  0  0999 V2000
   15.6370   -4.2639    0.0000 C   0  0  0  0  0  0  0  0  0  0  0  0
   16.9085   -5.0597    0.0000 N   0  0  0  0  0  0  0  0  0  0  0  0
   16.8551   -6.5587    0.0000 C   0  0  0  0  0  0  0  0  0  0  0  0
   15.5301   -7.2620    0.0000 C   0  0  0  0  0  0  0  0  0  0  0  0
   15.4767   -8.7610    0.0000 C   0  0  0  0  0  0  0  0  0  0  0  0
   16.7482   -9.5568    0.0000 C   0  0  0  0  0  0  0  0  0  0  0  0
   18.0731   -8.8536    0.0000 C   0  0  0  0  0  0  0  0  0  0  0  0
   18.1266   -7.3545    0.0000 C   0  0  0  0  0  0  0  0  0  0  0  0
   19.1514   -9.8964    0.0000 C   0  0  0  0  0  0  0  0  0  0  0  0
   18.4928  -11.2441    0.0000 O   0  0  0  0  0  0  0  0  0  0  0  0
   17.0076  -11.0342    0.0000 C   0  0  0  0  0  0  0  0  0  0  0  0
   15.9648  -12.1125    0.0000 O   0  0  0  0  0  0  0  0  0  0  0  0
   20.1147  -11.0461    0.0000 C   0  0  0  0  0  0  0  0  0  0  0  0
   21.5921  -10.7868    0.0000 C   0  0  0  0  0  0  0  0  0  0  0  0
   22.5554  -11.9365    0.0000 C   0  0  0  0  0  0  0  0  0  0  0  0
   22.0414  -13.3457    0.0000 C   0  0  0  0  0  0  0  0  0  0  0  0
   20.5640  -13.6051    0.0000 C   0  0  0  0  0  0  0  0  0  0  0  0
   19.6006  -12.4553    0.0000 C   0  0  0  0  0  0  0  0  0  0  0  0
   23.0047  -14.4955    0.0000 O   0  0  0  0  0  0  0  0  0  0  0  0
   22.1062   -9.3776    0.0000 O   0  0  0  0  0  0  0  0  0  0  0  0
   21.1428   -8.2278    0.0000 C   0  0  0  0  0  0  0  0  0  0  0  0
   19.6654   -8.4872    0.0000 C   0  0  0  0  0  0  0  0  0  0  0  0
   19.3915   -7.2164    0.0000 C   0  0  0  0  0  0  0  0  0  0  0  0
   19.6657   -6.4648    0.0000 C   0  0  0  0  0  0  0  0  0  0  0  0
   20.4537   -6.3265    0.0000 C   0  0  0  0  0  0  0  0  0  0  0  0
   20.9674   -6.9397    0.0000 C   0  0  0  0  0  0  0  0  0  0  0  0
   21.2076   -4.2597    0.0000 O   0  0  0  0  0  0  0  0  0  0  0  0
   14.3121   -4.9671    0.0000 S   0  0  0  0  0  0  0  0  0  0  0  0
   15.6905   -2.7648    0.0000 N   0  0  0  0  0  0  0  0  0  0  0  0
   14.4190   -1.9690    0.0000 C   0  0  0  0  0  0  0  0  0  0  0  0
   14.4725   -0.4700    0.0000 C   0  0  0  0  0  0  0  0  0  0  0  0
   13.2010    0.3259    0.0000 C   0  0  0  0  0  0  0  0  0  0  0  0
   12.2161   -0.8056    0.0000 O   0  0  0  0  0  0  0  0  0  0  0  0
   13.2544    1.8249    0.0000 N   0  0  0  0  0  0  0  0  0  0  0  0
   11.9829    2.6207    0.0000 C   0  0  0  0  0  0  0  0  0  0  0  0
   11.7805    1.1344    0.0000 C   0  0  0  0  0  0  0  0  0  0  0  0
   11.1490   -0.2261    0.0000 C   0  0  0  0  0  0  0  0  0  0  0  0
   10.1444   -1.3401    0.0000 C   0  0  0  0  0  0  0  0  0  0  0  0
    8.8562   -2.1085    0.0000 C   0  0  0  0  0  0  0  0  0  0  0  0
   13.2313    3.4524    0.0000 C   0  0  0  0  0  0  0  0  0  0  0  0
   11.7383    4.1006    0.0000 C   0  0  0  0  0  0  0  0  0  0  0  0
   13.1652    4.5631    0.0000 O   0  0  0  0  0  0  0  0  0  0  0  0
   11.0683    5.4427    0.0000 N   0  0  0  0  0  0  0  0  0  0  0  0
   10.0325    6.5276    0.0000 C   0  0  0  0  0  0  0  0  0  0  0  0
   10.1606    8.0222    0.0000 C   0  0  0  0  0  0  0  0  0  0  0  0
   11.5190    8.6585    0.0000 C   0  0  0  0  0  0  0  0  0  0  0  0
   11.6471   10.1530    0.0000 C   0  0  0  0  0  0  0  0  0  0  0  0
   13.0054   10.7893    0.0000 N   0  0  0  0  0  0  0  0  0  0  0  0
   13.1335   12.2838    0.0000 C   0  0  0  0  0  0  0  0  0  0  0  0
   14.4919   12.9202    0.0000 N   0  0  0  0  0  0  0  0  0  0  0  0
   11.9033   13.1420    0.0000 N   0  0  0  0  0  0  0  0  0  0  0  0
    8.7229    7.2591    0.0000 C   0  0  0  0  0  0  0  0  0  0  0  0
    9.2510    8.6631    0.0000 O   0  0  0  0  0  0  0  0  0  0  0  0
    7.2559    7.5720    0.0000 N   0  0  0  0  0  0  0  0  0  0  0  0
    5.7619    7.4387    0.0000 C   0  0  0  0  0  0  0  0  0  0  0  0
    4.6733    8.4707    0.0000 C   0  0  0  0  0  0  0  0  0  0  0  0
    5.0227    9.9294    0.0000 C   0  0  0  0  0  0  0  0  0  0  0  0
    3.9341   10.9614    0.0000 C   0  0  0  0  0  0  0  0  0  0  0  0
    4.2835   12.4201    0.0000 N   0  0  0  0  0  0  0  0  0  0  0  0
    3.1950   13.4521    0.0000 C   0  0  0  0  0  0  0  0  0  0  0  0
    3.5444   14.9108    0.0000 N   0  0  0  0  0  0  0  0  0  0  0  0
    1.7569   13.0253    0.0000 N   0  0  0  0  0  0  0  0  0  0  0  0
    4.3735    6.8709    0.0000 C   0  0  0  0  0  0  0  0  0  0  0  0
    3.6051    8.1591    0.0000 O   0  0  0  0  0  0  0  0  0  0  0  0
    3.2142    5.9190    0.0000 N   0  0  0  0  0  0  0  0  0  0  0  0
    2.3869    4.6678    0.0000 C   0  0  0  0  0  0  0  0  0  0  0  0
    0.9014    4.4601    0.0000 C   0  0  0  0  0  0  0  0  0  0  0  0
   -0.0213    5.6428    0.0000 C   0  0  0  0  0  0  0  0  0  0  0  0
   -1.5068    5.4351    0.0000 C   0  0  0  0  0  0  0  0  0  0  0  0
   -2.4294    6.6178    0.0000 N   0  0  0  0  0  0  0  0  0  0  0  0
   -3.9150    6.4102    0.0000 C   0  0  0  0  0  0  0  0  0  0  0  0
   -4.6866    7.6965    0.0000 N   0  0  0  0  0  0  0  0  0  0  0  0
   -4.7976    5.1973    0.0000 N   0  0  0  0  0  0  0  0  0  0  0  0
    1.9652    3.2283    0.0000 C   0  0  0  0  0  0  0  0  0  0  0  0
    1.1888    3.6545    0.0000 O   0  0  0  0  0  0  0  0  0  0  0  0
    1.9866    1.7284    0.0000 N   0  0  0  0  0  0  0  0  0  0  0  0
    2.4490    0.3015    0.0000 C   0  0  0  0  0  0  0  0  0  0  0  0
    3.3116   -0.9257    0.0000 C   0  0  0  0  0  0  0  0  0  0  0  0
    4.4975   -1.8442    0.0000 C   0  0  0  0  0  0  0  0  0  0  0  0
    5.9015   -2.3723    0.0000 C   0  0  0  0  0  0  0  0  0  0  0  0
    7.3987   -2.4631    0.0000 C   0  0  0  0  0  0  0  0  0  0  0  0
    2.3143   -1.2866    0.0000 C   0  0  0  0  0  0  0  0  0  0  0  0
    2.5555   -2.6321    0.0000 C   0  0  0  0  0  0  0  0  0  0  0  0
    2.5378   -3.9989    0.0000 C   0  0  0  0  0  0  0  0  0  0  0  0
    2.2617   -5.3377    0.0000 C   0  0  0  0  0  0  0  0  0  0  0  0
    1.0987    1.1483    0.0000 C   0  0  0  0  0  0  0  0  0  0  0  0
    2.8455    2.4857    0.0000 O   0  0  0  0  0  0  0  0  0  0  0  0
    0.1683    2.1497    0.0000 N   0  0  0  0  0  0  0  0  0  0  0  0
   -0.9347    2.9570    0.0000 C   0  0  0  0  0  0  0  0  0  0  0  0
   -0.6050    5.0583    0.0000 C   0  0  0  0  0  0  0  0  0  0  0  0
   -1.9179    5.7839    0.0000 C   0  0  0  0  0  0  0  0  0  0  0  0
   -1.9461    7.2836    0.0000 C   0  0  0  0  0  0  0  0  0  0  0  0
   -3.2589    8.0091    0.0000 N   0  0  0  0  0  0  0  0  0  0  0  0
   -3.2871    9.5088    0.0000 C   0  0  0  0  0  0  0  0  0  0  0  0
   -4.3854   10.5304    0.0000 N   0  0  0  0  0  0  0  0  0  0  0  0
   -2.0023   10.2831    0.0000 N   0  0  0  0  0  0  0  0  0  0  0  0
   -2.1707    3.5409    0.0000 C   0  0  0  0  0  0  0  0  0  0  0  0
   -2.1464    5.6842    0.0000 O   0  0  0  0  0  0  0  0  0  0  0  0
   -3.4948    3.8804    0.0000 N   0  0  0  0  0  0  0  0  0  0  0  0
   -4.8592    3.9631    0.0000 C   0  0  0  0  0  0  0  0  0  0  0  0
   -5.7179    5.9092    0.0000 C   0  0  0  0  0  0  0  0  0  0  0  0
   -5.0557    7.2551    0.0000 C   0  0  0  0  0  0  0  0  0  0  0  0
   -5.8902    8.5015    0.0000 C   0  0  0  0  0  0  0  0  0  0  0  0
   -5.2280    9.8474    0.0000 N   0  0  0  0  0  0  0  0  0  0  0  0
   -6.0624   11.0939    0.0000 C   0  0  0  0  0  0  0  0  0  0  0  0
   -5.4002   12.4398    0.0000 N   0  0  0  0  0  0  0  0  0  0  0  0
   -7.5591   10.9944    0.0000 N   0  0  0  0  0  0  0  0  0  0  0  0
   -6.2146    3.7862    0.0000 C   0  0  0  0  0  0  0  0  0  0  0  0
   -6.8812    5.8790    0.0000 O   0  0  0  0  0  0  0  0  0  0  0  0
   -7.5120    3.3559    0.0000 N   0  0  0  0  0  0  0  0  0  0  0  0
   -8.7046    2.6878    0.0000 C   0  0  0  0  0  0  0  0  0  0  0  0
  -10.4791    3.8607    0.0000 C   0  0  0  0  0  0  0  0  0  0  0  0
  -10.6497    5.3510    0.0000 C   0  0  0  0  0  0  0  0  0  0  0  0
  -12.0256    5.9484    0.0000 C   0  0  0  0  0  0  0  0  0  0  0  0
  -12.1961    7.4387    0.0000 N   0  0  0  0  0  0  0  0  0  0  0  0
  -13.5720    8.0361    0.0000 C   0  0  0  0  0  0  0  0  0  0  0  0
  -13.7426    9.5263    0.0000 N   0  0  0  0  0  0  0  0  0  0  0  0
  -14.7773    7.1432    0.0000 N   0  0  0  0  0  0  0  0  0  0  0  0
   -9.7492    1.8062    0.0000 C   0  0  0  0  0  0  0  0  0  0  0  0
  -11.4414    3.2064    0.0000 O   0  0  0  0  0  0  0  0  0  0  0  0
  -10.6080    0.7428    0.0000 N   0  0  0  0  0  0  0  0  0  0  0  0
  -11.2501   -0.4640    0.0000 C   0  0  0  0  0  0  0  0  0  0  0  0
  -13.3770   -0.4367    0.0000 C   0  0  0  0  0  0  0  0  0  0  0  0
  -14.3262    0.7248    0.0000 C   0  0  0  0  0  0  0  0  0  0  0  0
  -15.8066    0.4835    0.0000 C   0  0  0  0  0  0  0  0  0  0  0  0
  -16.7558    1.6450    0.0000 N   0  0  0  0  0  0  0  0  0  0  0  0
  -18.2363    1.4037    0.0000 C   0  0  0  0  0  0  0  0  0  0  0  0
  -19.1855    2.5652    0.0000 N   0  0  0  0  0  0  0  0  0  0  0  0
  -18.7676    0.0009    0.0000 N   0  0  0  0  0  0  0  0  0  0  0  0
  -11.6522   -1.7704    0.0000 C   0  0  0  0  0  0  0  0  0  0  0  0
  -13.8328   -1.5074    0.0000 O   0  0  0  0  0  0  0  0  0  0  0  0
  -11.7997   -3.1294    0.0000 N   0  0  0  0  0  0  0  0  0  0  0  0
  -11.6875   -4.4917    0.0000 C   0  0  0  0  0  0  0  0  0  0  0  0
  -13.4915   -5.6186    0.0000 C   0  0  0  0  0  0  0  0  0  0  0  0
  -14.9179   -5.1547    0.0000 C   0  0  0  0  0  0  0  0  0  0  0  0
  -16.0329   -6.1580    0.0000 C   0  0  0  0  0  0  0  0  0  0  0  0
  -17.4594   -5.6941    0.0000 N   0  0  0  0  0  0  0  0  0  0  0  0
  -18.5744   -6.6975    0.0000 C   0  0  0  0  0  0  0  0  0  0  0  0
  -20.0008   -6.2336    0.0000 N   0  0  0  0  0  0  0  0  0  0  0  0
  -18.2629   -8.1648    0.0000 N   0  0  0  0  0  0  0  0  0  0  0  0
  -11.3194   -5.8081    0.0000 C   0  0  0  0  0  0  0  0  0  0  0  0
  -13.2961   -6.7658    0.0000 O   0  0  0  0  0  0  0  0  0  0  0  0
  -10.7089   -7.0311    0.0000 N   0  0  0  0  0  0  0  0  0  0  0  0
   -9.8779   -8.1164    0.0000 C   0  0  0  0  0  0  0  0  0  0  0  0
  -10.7863  -10.0398    0.0000 C   0  0  0  0  0  0  0  0  0  0  0  0
  -12.2371  -10.4207    0.0000 C   0  0  0  0  0  0  0  0  0  0  0  0
  -12.6326  -11.8676    0.0000 C   0  0  0  0  0  0  0  0  0  0  0  0
  -14.0835  -12.2485    0.0000 N   0  0  0  0  0  0  0  0  0  0  0  0
  -14.4790  -13.6954    0.0000 C   0  0  0  0  0  0  0  0  0  0  0  0
  -15.9298  -14.0764    0.0000 N   0  0  0  0  0  0  0  0  0  0  0  0
  -13.4237  -14.7614    0.0000 N   0  0  0  0  0  0  0  0  0  0  0  0
   -8.8566   -9.0249    0.0000 C   0  0  0  0  0  0  0  0  0  0  0  0
  -10.0017  -10.8992    0.0000 O   0  0  0  0  0  0  0  0  0  0  0  0
   -7.6817   -9.7237    0.0000 N   0  0  0  0  0  0  0  0  0  0  0  0
   -6.3959  -10.1875    0.0000 C   0  0  0  0  0  0  0  0  0  0  0  0
   -5.0455  -10.3995    0.0000 C   0  0  0  0  0  0  0  0  0  0  0  0
   -3.6794  -10.3522    0.0000 C   0  0  0  0  0  0  0  0  0  0  0  0
   -2.3470  -10.0472    0.0000 C   0  0  0  0  0  0  0  0  0  0  0  0
   -1.0963   -9.4956    0.0000 C   0  0  0  0  0  0  0  0  0  0  0  0
    0.0273   -8.7172    0.0000 C   0  0  0  0  0  0  0  0  0  0  0  0
    0.9834   -7.7402    0.0000 C   0  0  0  0  0  0  0  0  0  0  0  0
    1.7372   -6.6000    0.0000 C   0  0  0  0  0  0  0  0  0  0  0  0
   -7.6524  -11.9038    0.0000 C   0  0  0  0  0  0  0  0  0  0  0  0
   -6.1202  -12.2966    0.0000 C   0  0  0  0  0  0  0  0  0  0  0  0
   -6.9926  -13.5169    0.0000 O   0  0  0  0  0  0  0  0  0  0  0  0
   -4.7786  -12.9674    0.0000 O   0  0  0  0  0  0  0  0  0  0  0  0
   18.1379   -4.2002    0.0000 H   0  0  0  0  0  0  0  0  0  0  0  0
   14.2587   -6.4661    0.0000 H   0  0  0  0  0  0  0  0  0  0  0  0
   14.1518   -9.4642    0.0000 H   0  0  0  0  0  0  0  0  0  0  0  0
   19.2420   -6.3516    0.0000 H   0  0  0  0  0  0  0  0  0  0  0  0
   24.0328  -11.6771    0.0000 H   0  0  0  0  0  0  0  0  0  0  0  0
   20.0499  -15.0142    0.0000 H   0  0  0  0  0  0  0  0  0  0  0  0
   18.1232  -12.7147    0.0000 H   0  0  0  0  0  0  0  0  0  0  0  0
   22.4906  -15.9046    0.0000 H   0  0  0  0  0  0  0  0  0  0  0  0
   17.2247   -7.5968    0.0000 H   0  0  0  0  0  0  0  0  0  0  0  0
   18.4002   -4.6696    0.0000 H   0  0  0  0  0  0  0  0  0  0  0  0
   23.1343   -6.5593    0.0000 H   0  0  0  0  0  0  0  0  0  0  0  0
   22.6850   -4.0003    0.0000 H   0  0  0  0  0  0  0  0  0  0  0  0
   17.0154   -2.0616    0.0000 H   0  0  0  0  0  0  0  0  0  0  0  0
   13.8561   -3.3594    0.0000 H   0  0  0  0  0  0  0  0  0  0  0  0
   12.9520   -1.6561    0.0000 H   0  0  0  0  0  0  0  0  0  0  0  0
   15.9394   -0.7829    0.0000 H   0  0  0  0  0  0  0  0  0  0  0  0
   15.0354    0.9204    0.0000 H   0  0  0  0  0  0  0  0  0  0  0  0
   14.6552    2.3614    0.0000 H   0  0  0  0  0  0  0  0  0  0  0  0
   13.2790    1.2006    0.0000 H   0  0  0  0  0  0  0  0  0  0  0  0
   12.6152   -0.1118    0.0000 H   0  0  0  0  0  0  0  0  0  0  0  0
   12.4657   -0.9446    0.0000 H   0  0  0  0  0  0  0  0  0  0  0  0
   11.9142   -1.5163    0.0000 H   0  0  0  0  0  0  0  0  0  0  0  0
   11.5066   -1.9683    0.0000 H   0  0  0  0  0  0  0  0  0  0  0  0
   10.3150   -2.8304    0.0000 H   0  0  0  0  0  0  0  0  0  0  0  0
    9.4240   -3.4969    0.0000 H   0  0  0  0  0  0  0  0  0  0  0  0
   14.6467    2.9560    0.0000 H   0  0  0  0  0  0  0  0  0  0  0  0
   14.1199    4.6608    0.0000 H   0  0  0  0  0  0  0  0  0  0  0  0
   12.4888    4.7557    0.0000 H   0  0  0  0  0  0  0  0  0  0  0  0
   12.2955    6.3052    0.0000 H   0  0  0  0  0  0  0  0  0  0  0  0
   11.4976    6.8494    0.0000 H   0  0  0  0  0  0  0  0  0  0  0  0
    9.5962    9.4119    0.0000 H   0  0  0  0  0  0  0  0  0  0  0  0
    8.6787    8.2543    0.0000 H   0  0  0  0  0  0  0  0  0  0  0  0
   13.0130    8.7918    0.0000 H   0  0  0  0  0  0  0  0  0  0  0  0
   12.0834    7.2687    0.0000 H   0  0  0  0  0  0  0  0  0  0  0  0
   11.2563   11.6012    0.0000 H   0  0  0  0  0  0  0  0  0  0  0  0
   10.1479   10.2028    0.0000 H   0  0  0  0  0  0  0  0  0  0  0  0
   14.2357    9.9311    0.0000 H   0  0  0  0  0  0  0  0  0  0  0  0
   14.6200   14.4147    0.0000 H   0  0  0  0  0  0  0  0  0  0  0  0
   15.7221   12.0620    0.0000 H   0  0  0  0  0  0  0  0  0  0  0  0
   12.0314   14.6366    0.0000 H   0  0  0  0  0  0  0  0  0  0  0  0
   10.5449   12.5057    0.0000 H   0  0  0  0  0  0  0  0  0  0  0  0
    7.3468    9.0693    0.0000 H   0  0  0  0  0  0  0  0  0  0  0  0
    6.4238    8.7847    0.0000 H   0  0  0  0  0  0  0  0  0  0  0  0
    3.2348    8.8959    0.0000 H   0  0  0  0  0  0  0  0  0  0  0  0
    3.5678    7.4568    0.0000 H   0  0  0  0  0  0  0  0  0  0  0  0
    5.8500   11.1806    0.0000 H   0  0  0  0  0  0  0  0  0  0  0  0
    6.4612    9.5041    0.0000 H   0  0  0  0  0  0  0  0  0  0  0  0
    2.5582   11.5588    0.0000 H   0  0  0  0  0  0  0  0  0  0  0  0
    2.9605    9.8203    0.0000 H   0  0  0  0  0  0  0  0  0  0  0  0
    5.7216   12.8469    0.0000 H   0  0  0  0  0  0  0  0  0  0  0  0
    2.4558   15.9428    0.0000 H   0  0  0  0  0  0  0  0  0  0  0  0
    4.9824   15.3376    0.0000 H   0  0  0  0  0  0  0  0  0  0  0  0
    0.6684   14.0573    0.0000 H   0  0  0  0  0  0  0  0  0  0  0  0
    1.4075   11.5666    0.0000 H   0  0  0  0  0  0  0  0  0  0  0  0
    2.1002    6.9236    0.0000 H   0  0  0  0  0  0  0  0  0  0  0  0
    1.7473    6.0246    0.0000 H   0  0  0  0  0  0  0  0  0  0  0  0
   -0.4994    3.9236    0.0000 H   0  0  0  0  0  0  0  0  0  0  0  0
    0.8216    2.9622    0.0000 H   0  0  0  0  0  0  0  0  0  0  0  0
   -0.1247    7.1392    0.0000 H   0  0  0  0  0  0  0  0  0  0  0  0
    1.2081    6.5023    0.0000 H   0  0  0  0  0  0  0  0  0  0  0  0
   -2.9076    4.8987    0.0000 H   0  0  0  0  0  0  0  0  0  0  0  0
   -1.5865    3.9373    0.0000 H   0  0  0  0  0  0  0  0  0  0  0  0
   -2.4023    8.1176    0.0000 H   0  0  0  0  0  0  0  0  0  0  0  0
   -6.3232    7.3852    0.0000 H   0  0  0  0  0  0  0  0  0  0  0  0
   -4.1209    8.9234    0.0000 H   0  0  0  0  0  0  0  0  0  0  0  0
   -6.0017    4.9571    0.0000 H   0  0  0  0  0  0  0  0  0  0  0  0
   -3.9214    3.5769    0.0000 H   0  0  0  0  0  0  0  0  0  0  0  0
    0.5066    1.4838    0.0000 H   0  0  0  0  0  0  0  0  0  0  0  0
    3.1426   -2.4162    0.0000 H   0  0  0  0  0  0  0  0  0  0  0  0
    1.8382   -1.2072    0.0000 H   0  0  0  0  0  0  0  0  0  0  0  0
    4.7753   -3.3182    0.0000 H   0  0  0  0  0  0  0  0  0  0  0  0
    3.5127   -2.9756    0.0000 H   0  0  0  0  0  0  0  0  0  0  0  0
    6.4345   -3.7744    0.0000 H   0  0  0  0  0  0  0  0  0  0  0  0
    5.2939   -3.7437    0.0000 H   0  0  0  0  0  0  0  0  0  0  0  0
    7.5321   -3.9571    0.0000 H   0  0  0  0  0  0  0  0  0  0  0  0
    4.0030    0.0067    0.0000 H   0  0  0  0  0  0  0  0  0  0  0  0
    4.3671   -1.6891    0.0000 H   0  0  0  0  0  0  0  0  0  0  0  0
    4.6984   -2.1731    0.0000 H   0  0  0  0  0  0  0  0  0  0  0  0
    4.4951   -3.4158    0.0000 H   0  0  0  0  0  0  0  0  0  0  0  0
    4.7288   -3.9538    0.0000 H   0  0  0  0  0  0  0  0  0  0  0  0
    4.4155   -4.9983    0.0000 H   0  0  0  0  0  0  0  0  0  0  0  0
    4.3644   -5.9848    0.0000 H   0  0  0  0  0  0  0  0  0  0  0  0
    1.4864    3.9067    0.0000 H   0  0  0  0  0  0  0  0  0  0  0  0
    0.5475    4.5514    0.0000 H   0  0  0  0  0  0  0  0  0  0  0  0
   -0.1185    6.4773    0.0000 H   0  0  0  0  0  0  0  0  0  0  0  0
    0.8374    4.6467    0.0000 H   0  0  0  0  0  0  0  0  0  0  0  0
   -3.4171    5.8342    0.0000 H   0  0  0  0  0  0  0  0  0  0  0  0
   -2.8807    4.6336    0.0000 H   0  0  0  0  0  0  0  0  0  0  0  0
   -1.2902    8.6326    0.0000 H   0  0  0  0  0  0  0  0  0  0  0  0
   -0.4519    7.4164    0.0000 H   0  0  0  0  0  0  0  0  0  0  0  0
   -4.7358    7.7468    0.0000 H   0  0  0  0  0  0  0  0  0  0  0  0
   -4.6281   11.7341    0.0000 H   0  0  0  0  0  0  0  0  0  0  0  0
   -6.0991    9.8547    0.0000 H   0  0  0  0  0  0  0  0  0  0  0  0
   -2.0305   11.7828    0.0000 H   0  0  0  0  0  0  0  0  0  0  0  0
   -0.6894    9.5576    0.0000 H   0  0  0  0  0  0  0  0  0  0  0  0
   -3.1534    6.0537    0.0000 H   0  0  0  0  0  0  0  0  0  0  0  0
   -4.4742    6.1058    0.0000 H   0  0  0  0  0  0  0  0  0  0  0  0
   -7.0273    6.6409    0.0000 H   0  0  0  0  0  0  0  0  0  0  0  0
   -7.1007    5.3280    0.0000 H   0  0  0  0  0  0  0  0  0  0  0  0
   -4.4172    8.6124    0.0000 H   0  0  0  0  0  0  0  0  0  0  0  0
   -3.9622    6.2283    0.0000 H   0  0  0  0  0  0  0  0  0  0  0  0
   -7.1006    9.3874    0.0000 H   0  0  0  0  0  0  0  0  0  0  0  0
   -7.1918    7.7561    0.0000 H   0  0  0  0  0  0  0  0  0  0  0  0
   -3.7998   10.3061    0.0000 H   0  0  0  0  0  0  0  0  0  0  0  0
   -6.2347   13.6862    0.0000 H   0  0  0  0  0  0  0  0  0  0  0  0
   -3.9035   12.5393    0.0000 H   0  0  0  0  0  0  0  0  0  0  0  0
   -8.3936   12.2409    0.0000 H   0  0  0  0  0  0  0  0  0  0  0  0
   -8.2214    9.6485    0.0000 H   0  0  0  0  0  0  0  0  0  0  0  0
   -8.2281    5.4323    0.0000 H   0  0  0  0  0  0  0  0  0  0  0  0
   -8.9957    4.7594    0.0000 H   0  0  0  0  0  0  0  0  0  0  0  0
  -11.9763    3.9515    0.0000 H   0  0  0  0  0  0  0  0  0  0  0  0
  -11.1711    2.5299    0.0000 H   0  0  0  0  0  0  0  0  0  0  0  0
  -10.3002    6.8097    0.0000 H   0  0  0  0  0  0  0  0  0  0  0  0
   -9.1749    5.6252    0.0000 H   0  0  0  0  0  0  0  0  0  0  0  0
  -13.5228    6.0392    0.0000 H   0  0  0  0  0  0  0  0  0  0  0  0
  -12.5502    4.5431    0.0000 H   0  0  0  0  0  0  0  0  0  0  0  0
  -10.9908    8.3315    0.0000 H   0  0  0  0  0  0  0  0  0  0  0  0
  -15.1185   10.1238    0.0000 H   0  0  0  0  0  0  0  0  0  0  0  0
  -12.5373   10.4192    0.0000 H   0  0  0  0  0  0  0  0  0  0  0  0
  -16.1532    7.7406    0.0000 H   0  0  0  0  0  0  0  0  0  0  0  0
  -14.6068    5.6530    0.0000 H   0  0  0  0  0  0  0  0  0  0  0  0
  -12.3330    2.1024    0.0000 H   0  0  0  0  0  0  0  0  0  0  0  0
  -12.6150    1.1213    0.0000 H   0  0  0  0  0  0  0  0  0  0  0  0
  -14.6856   -1.1698    0.0000 H   0  0  0  0  0  0  0  0  0  0  0  0
  -13.2396   -1.9304    0.0000 H   0  0  0  0  0  0  0  0  0  0  0  0
  -14.8209    2.1409    0.0000 H   0  0  0  0  0  0  0  0  0  0  0  0
  -13.2338    1.7528    0.0000 H   0  0  0  0  0  0  0  0  0  0  0  0
  -17.1153   -0.2496    0.0000 H   0  0  0  0  0  0  0  0  0  0  0  0
  -15.4882   -0.9823    0.0000 H   0  0  0  0  0  0  0  0  0  0  0  0
  -16.2245    3.0478    0.0000 H   0  0  0  0  0  0  0  0  0  0  0  0
  -20.6659    2.3239    0.0000 H   0  0  0  0  0  0  0  0  0  0  0  0
  -18.6542    3.9679    0.0000 H   0  0  0  0  0  0  0  0  0  0  0  0
  -20.2480   -0.2403    0.0000 H   0  0  0  0  0  0  0  0  0  0  0  0
  -17.8184   -1.1605    0.0000 H   0  0  0  0  0  0  0  0  0  0  0  0
  -13.9860   -2.9181    0.0000 H   0  0  0  0  0  0  0  0  0  0  0  0
  -13.6928   -3.8959    0.0000 H   0  0  0  0  0  0  0  0  0  0  0  0
  -14.1961   -6.9428    0.0000 H   0  0  0  0  0  0  0  0  0  0  0  0
  -12.5684   -6.8009    0.0000 H   0  0  0  0  0  0  0  0  0  0  0  0
  -16.0997   -4.2308    0.0000 H   0  0  0  0  0  0  0  0  0  0  0  0
  -14.5547   -3.6993    0.0000 H   0  0  0  0  0  0  0  0  0  0  0  0
  -16.7375   -7.4823    0.0000 H   0  0  0  0  0  0  0  0  0  0  0  0
  -14.9726   -7.2190    0.0000 H   0  0  0  0  0  0  0  0  0  0  0  0
  -17.7708   -4.2268    0.0000 H   0  0  0  0  0  0  0  0  0  0  0  0
  -21.1158   -7.2369    0.0000 H   0  0  0  0  0  0  0  0  0  0  0  0
  -20.3123   -4.7663    0.0000 H   0  0  0  0  0  0  0  0  0  0  0  0
  -19.3779   -9.1682    0.0000 H   0  0  0  0  0  0  0  0  0  0  0  0
  -16.8365   -8.6287    0.0000 H   0  0  0  0  0  0  0  0  0  0  0  0
  -12.6623   -8.0354    0.0000 H   0  0  0  0  0  0  0  0  0  0  0  0
  -11.8870   -8.6994    0.0000 H   0  0  0  0  0  0  0  0  0  0  0  0
  -10.6631  -11.5347    0.0000 H   0  0  0  0  0  0  0  0  0  0  0  0
   -9.3705  -10.5354    0.0000 H   0  0  0  0  0  0  0  0  0  0  0  0
  -13.7307  -10.2824    0.0000 H   0  0  0  0  0  0  0  0  0  0  0  0
  -12.7184   -9.0000    0.0000 H   0  0  0  0  0  0  0  0  0  0  0  0
  -12.5094  -13.3625    0.0000 H   0  0  0  0  0  0  0  0  0  0  0  0
  -11.1670  -12.1869    0.0000 H   0  0  0  0  0  0  0  0  0  0  0  0
  -15.1388  -11.1825    0.0000 H   0  0  0  0  0  0  0  0  0  0  0  0
  -16.3253  -15.5233    0.0000 H   0  0  0  0  0  0  0  0  0  0  0  0
  -16.9851  -13.0104    0.0000 H   0  0  0  0  0  0  0  0  0  0  0  0
  -13.8192  -16.2084    0.0000 H   0  0  0  0  0  0  0  0  0  0  0  0
  -11.9729  -14.3805    0.0000 H   0  0  0  0  0  0  0  0  0  0  0  0
   -8.7821  -11.6246    0.0000 H   0  0  0  0  0  0  0  0  0  0  0  0
   -4.3757  -12.4184    0.0000 H   0  0  0  0  0  0  0  0  0  0  0  0
   -5.6324  -12.4959    0.0000 H   0  0  0  0  0  0  0  0  0  0  0  0
   -2.7883  -12.3148    0.0000 H   0  0  0  0  0  0  0  0  0  0  0  0
   -3.8590  -12.5218    0.0000 H   0  0  0  0  0  0  0  0  0  0  0  0
   -1.1005  -11.8057    0.0000 H   0  0  0  0  0  0  0  0  0  0  0  0
   -2.2956  -12.2021    0.0000 H   0  0  0  0  0  0  0  0  0  0  0  0
    0.4604  -10.9864    0.0000 H   0  0  0  0  0  0  0  0  0  0  0  0
   -0.6381  -11.6018    0.0000 H   0  0  0  0  0  0  0  0  0  0  0  0
    1.8381   -9.8864    0.0000 H   0  0  0  0  0  0  0  0  0  0  0  0
    0.8759  -10.6986    0.0000 H   0  0  0  0  0  0  0  0  0  0  0  0
    3.0164   -8.3656    0.0000 H   0  0  0  0  0  0  0  0  0  0  0  0
    2.1916   -9.5252    0.0000 H   0  0  0  0  0  0  0  0  0  0  0  0
    3.6794   -7.6333    0.0000 H   0  0  0  0  0  0  0  0  0  0  0  0
   -7.4747  -13.3932    0.0000 H   0  0  0  0  0  0  0  0  0  0  0  0
   -8.9407  -12.6719    0.0000 H   0  0  0  0  0  0  0  0  0  0  0  0
   -8.7637  -10.8963    0.0000 H   0  0  0  0  0  0  0  0  0  0  0  0
  1  2  1  0
  2  3  1  0
  3  4  2  0
  4  5  1  0
  5  6  2  0
  6  7  1  0
  7  8  2  0
  7  9  1  0
  9 10  1  0
 10 11  1  0
 11 12  2  0
  9 13  1  0
 13 14  1  0
 14 15  2  0
 15 16  1  0
 16 17  2  0
 17 18  1  0
 16 19  1  0
 14 20  1  0
 20 21  1  0
 21 22  2  0
 22 23  1  0
 23 24  2  0
 24 25  1  0
 25 26  2  0
 25 27  1  0
  1 28  2  0
  1 29  1  0
 29 30  1  0
 30 31  1  0
 31 32  1  0
 32 33  2  0
 32 34  1  0
 35 34  1  1
 35 36  1  0
 36 37  1  0
 37 38  1  0
 38 39  1  0
 35 40  1  0
 35 41  1  0
 41 42  2  0
 41 43  1  0
 43 44  1  0
 44 45  1  0
 45 46  1  0
 46 47  1  0
 47 48  1  0
 48 49  1  0
 49 50  2  3
 49 51  1  0
 44 52  1  0
 52 53  2  0
 52 54  1  0
 54 55  1  0
 55 56  1  0
 56 57  1  0
 57 58  1  0
 58 59  1  0
 59 60  1  0
 60 61  2  3
 60 62  1  0
 55 63  1  0
 63 64  2  0
 63 65  1  0
 65 66  1  0
 66 67  1  0
 67 68  1  0
 68 69  1  0
 69 70  1  0
 70 71  1  0
 71 72  2  3
 71 73  1  0
 66 74  1  0
 74 75  2  0
 74 76  1  0
 76 77  1  0
 77 78  1  0
 78 79  1  0
 79 80  1  0
 80 81  1  0
 77 82  1  0
 82 83  1  0
 83 84  1  0
 84 85  1  0
 77 86  1  0
 86 87  2  0
 86 88  1  0
 88 89  1  0
 89 90  1  0
 90 91  1  0
 91 92  1  0
 92 93  1  0
 93 94  1  0
 94 95  2  3
 94 96  1  0
 89 97  1  0
 97 98  2  0
 97 99  1  0
 99100  1  0
100101  1  0
101102  1  0
102103  1  0
103104  1  0
104105  1  0
105106  2  3
105107  1  0
100108  1  0
108109  2  0
108110  1  0
110111  1  0
111112  1  0
112113  1  0
113114  1  0
114115  1  0
115116  1  0
116117  2  3
116118  1  0
111119  1  0
119120  2  0
119121  1  0
121122  1  0
122123  1  0
123124  1  0
124125  1  0
125126  1  0
126127  1  0
127128  2  3
127129  1  0
122130  1  0
130131  2  0
130132  1  0
132133  1  0
133134  1  0
134135  1  0
135136  1  0
136137  1  0
137138  1  0
138139  2  3
138140  1  0
133141  1  0
141142  2  0
141143  1  0
143144  1  0
144145  1  0
145146  1  0
146147  1  0
147148  1  0
148149  1  0
149150  2  3
149151  1  0
144152  1  0
152153  2  0
152154  1  0
154155  1  0
155156  1  0
156157  1  0
157158  1  0
158159  1  0
159160  1  0
160161  1  0
161162  1  0
155163  1  0
155164  1  1
164165  2  0
164166  1  0
  8  3  1  0
 11  6  1  0
 18 13  2  0
 39 81  2  0
 22  9  1  0
 85162  2  0
 26 21  1  0
  2167  1  0
  4168  1  0
  5169  1  0
  8170  1  0
 15171  1  0
 17172  1  0
 18173  1  0
 19174  1  0
 23175  1  0
 24176  1  0
 26177  1  0
 27178  1  0
 29179  1  0
 30180  1  0
 30181  1  0
 31182  1  0
 31183  1  0
 34184  1  0
 36185  1  0
 36186  1  0
 37187  1  0
 37188  1  0
 38189  1  0
 38190  1  0
 39191  1  0
 40192  1  0
 40193  1  0
 40194  1  0
 43195  1  0
 44196  1  6
 45197  1  0
 45198  1  0
 46199  1  0
 46200  1  0
 47201  1  0
 47202  1  0
 48203  1  0
 50204  1  0
 50205  1  0
 51206  1  0
 51207  1  0
 54208  1  0
 55209  1  6
 56210  1  0
 56211  1  0
 57212  1  0
 57213  1  0
 58214  1  0
 58215  1  0
 59216  1  0
 61217  1  0
 61218  1  0
 62219  1  0
 62220  1  0
 65221  1  0
 66222  1  6
 67223  1  0
 67224  1  0
 68225  1  0
 68226  1  0
 69227  1  0
 69228  1  0
 70229  1  0
 72230  1  0
 72231  1  0
 73232  1  0
 73233  1  0
 76234  1  0
 78235  1  0
 78236  1  0
 79237  1  0
 79238  1  0
 80239  1  0
 80240  1  0
 81241  1  0
 82242  1  0
 82243  1  0
 83244  1  0
 83245  1  0
 84246  1  0
 84247  1  0
 85248  1  0
 88249  1  0
 89250  1  6
 90251  1  0
 90252  1  0
 91253  1  0
 91254  1  0
 92255  1  0
 92256  1  0
 93257  1  0
 95258  1  0
 95259  1  0
 96260  1  0
 96261  1  0
 99262  1  0
100263  1  6
101264  1  0
101265  1  0
102266  1  0
102267  1  0
103268  1  0
103269  1  0
104270  1  0
106271  1  0
106272  1  0
107273  1  0
107274  1  0
110275  1  0
111276  1  6
112277  1  0
112278  1  0
113279  1  0
113280  1  0
114281  1  0
114282  1  0
115283  1  0
117284  1  0
117285  1  0
118286  1  0
118287  1  0
121288  1  0
122289  1  6
123290  1  0
123291  1  0
124292  1  0
124293  1  0
125294  1  0
125295  1  0
126296  1  0
128297  1  0
128298  1  0
129299  1  0
129300  1  0
132301  1  0
133302  1  6
134303  1  0
134304  1  0
135305  1  0
135306  1  0
136307  1  0
136308  1  0
137309  1  0
139310  1  0
139311  1  0
140312  1  0
140313  1  0
143314  1  0
144315  1  6
145316  1  0
145317  1  0
146318  1  0
146319  1  0
147320  1  0
147321  1  0
148322  1  0
150323  1  0
150324  1  0
151325  1  0
151326  1  0
154327  1  0
156328  1  0
156329  1  0
157330  1  0
157331  1  0
158332  1  0
158333  1  0
159334  1  0
159335  1  0
160336  1  0
160337  1  0
161338  1  0
161339  1  0
162340  1  0
163341  1  0
163342  1  0
163343  1  0
M  CHG  8  50   1  61   1  72   1  95   1 106   1 117   1 128   1 139   1
M  CHG  2 150   1 166  -1
M  END
