
     RDKit          2D

322328  0  0  0  0  0  0  0  0999 V2000
   27.8068   -4.8527    0.0000 C   0  0  0  0  0  0  0  0  0  0  0  0
   29.2819   -4.5806    0.0000 N   0  0  0  0  0  0  0  0  0  0  0  0
   30.2551   -5.7220    0.0000 C   0  0  0  0  0  0  0  0  0  0  0  0
   29.7533   -7.1355    0.0000 C   0  0  0  0  0  0  0  0  0  0  0  0
   30.7265   -8.2769    0.0000 C   0  0  0  0  0  0  0  0  0  0  0  0
   32.2016   -8.0048    0.0000 C   0  0  0  0  0  0  0  0  0  0  0  0
   32.7035   -6.5912    0.0000 C   0  0  0  0  0  0  0  0  0  0  0  0
   31.7302   -5.4498    0.0000 C   0  0  0  0  0  0  0  0  0  0  0  0
   34.2029   -6.6317    0.0000 C   0  0  0  0  0  0  0  0  0  0  0  0
   34.6278   -8.0702    0.0000 O   0  0  0  0  0  0  0  0  0  0  0  0
   33.3909   -8.9189    0.0000 C   0  0  0  0  0  0  0  0  0  0  0  0
   33.3505  -10.4183    0.0000 O   0  0  0  0  0  0  0  0  0  0  0  0
   35.6900   -6.8287    0.0000 C   0  0  0  0  0  0  0  0  0  0  0  0
   36.6041   -5.6394    0.0000 C   0  0  0  0  0  0  0  0  0  0  0  0
   38.0911   -5.8363    0.0000 C   0  0  0  0  0  0  0  0  0  0  0  0
   38.6640   -7.2226    0.0000 C   0  0  0  0  0  0  0  0  0  0  0  0
   37.7499   -8.4119    0.0000 C   0  0  0  0  0  0  0  0  0  0  0  0
   36.2629   -8.2149    0.0000 C   0  0  0  0  0  0  0  0  0  0  0  0
   40.1510   -7.4196    0.0000 O   0  0  0  0  0  0  0  0  0  0  0  0
   36.0311   -4.2531    0.0000 O   0  0  0  0  0  0  0  0  0  0  0  0
   34.5441   -4.0561    0.0000 C   0  0  0  0  0  0  0  0  0  0  0  0
   33.6300   -5.2454    0.0000 C   0  0  0  0  0  0  0  0  0  0  0  0
   32.5696   -4.4934    0.0000 C   0  0  0  0  0  0  0  0  0  0  0  0
   32.2641   -3.7540    0.0000 C   0  0  0  0  0  0  0  0  0  0  0  0
   32.7516   -3.1198    0.0000 C   0  0  0  0  0  0  0  0  0  0  0  0
   33.5446   -3.2248    0.0000 C   0  0  0  0  0  0  0  0  0  0  0  0
   31.9113   -1.0865    0.0000 O   0  0  0  0  0  0  0  0  0  0  0  0
   27.3049   -6.2663    0.0000 S   0  0  0  0  0  0  0  0  0  0  0  0
   26.8335   -3.7113    0.0000 N   0  0  0  0  0  0  0  0  0  0  0  0
   25.3584   -3.9835    0.0000 C   0  0  0  0  0  0  0  0  0  0  0  0
   24.3852   -2.8421    0.0000 C   0  0  0  0  0  0  0  0  0  0  0  0
   22.9101   -3.1143    0.0000 O   0  0  0  0  0  0  0  0  0  0  0  0
   21.9368   -1.9729    0.0000 C   0  0  0  0  0  0  0  0  0  0  0  0
   20.4617   -2.2451    0.0000 C   0  0  0  0  0  0  0  0  0  0  0  0
   19.4885   -1.1037    0.0000 O   0  0  0  0  0  0  0  0  0  0  0  0
   18.0134   -1.3758    0.0000 C   0  0  0  0  0  0  0  0  0  0  0  0
   17.0401   -0.2344    0.0000 C   0  0  0  0  0  0  0  0  0  0  0  0
   15.5650   -0.5066    0.0000 N   0  0  0  0  0  0  0  0  0  0  0  0
   14.5918    0.6348    0.0000 C   0  0  0  0  0  0  0  0  0  0  0  0
   15.0936    2.0483    0.0000 O   0  0  0  0  0  0  0  0  0  0  0  0
   13.1166    0.3626    0.0000 C   0  0  0  0  0  0  0  0  0  0  0  0
   12.1434    1.5040    0.0000 C   0  0  0  0  0  0  0  0  0  0  0  0
   10.6683    1.2318    0.0000 C   0  0  0  0  0  0  0  0  0  0  0  0
   10.5913    0.4384    0.0000 O   0  0  0  0  0  0  0  0  0  0  0  0
    9.6950    2.3732    0.0000 N   0  0  0  0  0  0  0  0  0  0  0  0
    8.2199    2.1011    0.0000 C   0  0  0  0  0  0  0  0  0  0  0  0
    8.7441    0.6956    0.0000 C   0  0  0  0  0  0  0  0  0  0  0  0
   10.2233    0.4469    0.0000 C   0  0  0  0  0  0  0  0  0  0  0  0
    8.7560   -0.8043    0.0000 C   0  0  0  0  0  0  0  0  0  0  0  0
   10.0609   -1.5440    0.0000 C   0  0  0  0  0  0  0  0  0  0  0  0
    6.7407    2.3498    0.0000 C   0  0  0  0  0  0  0  0  0  0  0  0
    6.0939    0.9964    0.0000 O   0  0  0  0  0  0  0  0  0  0  0  0
    6.2165    3.7553    0.0000 N   0  0  0  0  0  0  0  0  0  0  0  0
    4.7373    4.0040    0.0000 C   0  0  0  0  0  0  0  0  0  0  0  0
    4.7492    2.5041    0.0000 C   0  0  0  0  0  0  0  0  0  0  0  0
    6.0541    1.7644    0.0000 C   0  0  0  0  0  0  0  0  0  0  0  0
    6.0660    0.2644    0.0000 C   0  0  0  0  0  0  0  0  0  0  0  0
    7.5334    1.5156    0.0000 C   0  0  0  0  0  0  0  0  0  0  0  0
    3.4324    4.7437    0.0000 C   0  0  0  0  0  0  0  0  0  0  0  0
    2.3617    3.6931    0.0000 O   0  0  0  0  0  0  0  0  0  0  0  0
    3.4205    6.2437    0.0000 N   0  0  0  0  0  0  0  0  0  0  0  0
    2.1155    6.9833    0.0000 C   0  0  0  0  0  0  0  0  0  0  0  0
    2.0323    5.4857    0.0000 C   0  0  0  0  0  0  0  0  0  0  0  0
    1.6671    4.0308    0.0000 C   0  0  0  0  0  0  0  0  0  0  0  0
    1.0331    2.6713    0.0000 C   0  0  0  0  0  0  0  0  0  0  0  0
    0.1533    1.4564    0.0000 C   0  0  0  0  0  0  0  0  0  0  0  0
   -0.9404    0.4300    0.0000 C   0  0  0  0  0  0  0  0  0  0  0  0
   -2.2087   -0.3709    0.0000 C   0  0  0  0  0  0  0  0  0  0  0  0
   -3.6057   -0.9174    0.0000 C   0  0  0  0  0  0  0  0  0  0  0  0
    3.3578    7.8241    0.0000 C   0  0  0  0  0  0  0  0  0  0  0  0
    1.9139    8.4697    0.0000 C   0  0  0  0  0  0  0  0  0  0  0  0
    3.3218    8.9873    0.0000 O   0  0  0  0  0  0  0  0  0  0  0  0
    1.4345    9.8911    0.0000 N   0  0  0  0  0  0  0  0  0  0  0  0
    0.6949   11.1960    0.0000 C   0  0  0  0  0  0  0  0  0  0  0  0
    1.2854   12.5749    0.0000 C   0  0  0  0  0  0  0  0  0  0  0  0
    2.7748   12.7530    0.0000 C   0  0  0  0  0  0  0  0  0  0  0  0
    3.3653   14.1319    0.0000 S   0  0  0  0  0  0  0  0  0  0  0  0
    4.8547   14.3099    0.0000 C   0  0  0  0  0  0  0  0  0  0  0  0
   -0.2784   12.3374    0.0000 C   0  0  0  0  0  0  0  0  0  0  0  0
    0.6262   13.5340    0.0000 O   0  0  0  0  0  0  0  0  0  0  0  0
   -1.4500   13.2740    0.0000 N   0  0  0  0  0  0  0  0  0  0  0  0
   -2.7778   13.9719    0.0000 C   0  0  0  0  0  0  0  0  0  0  0  0
   -3.0265   15.4512    0.0000 C   0  0  0  0  0  0  0  0  0  0  0  0
   -4.2136   14.4059    0.0000 C   0  0  0  0  0  0  0  0  0  0  0  0
   -4.0995   15.9016    0.0000 O   0  0  0  0  0  0  0  0  0  0  0  0
   -5.7057   14.5604    0.0000 N   0  0  0  0  0  0  0  0  0  0  0  0
   -7.1999   14.4297    0.0000 C   0  0  0  0  0  0  0  0  0  0  0  0
   -8.2089   15.5396    0.0000 C   0  0  0  0  0  0  0  0  0  0  0  0
   -7.7522   16.9684    0.0000 C   0  0  0  0  0  0  0  0  0  0  0  0
   -8.6425   14.0185    0.0000 C   0  0  0  0  0  0  0  0  0  0  0  0
   -9.3551   15.3384    0.0000 O   0  0  0  0  0  0  0  0  0  0  0  0
   -9.9812   13.3418    0.0000 N   0  0  0  0  0  0  0  0  0  0  0  0
  -11.1676   12.4239    0.0000 C   0  0  0  0  0  0  0  0  0  0  0  0
  -12.6165   12.8122    0.0000 C   0  0  0  0  0  0  0  0  0  0  0  0
  -13.0047   14.2611    0.0000 O   0  0  0  0  0  0  0  0  0  0  0  0
  -12.1588   11.2982    0.0000 C   0  0  0  0  0  0  0  0  0  0  0  0
  -13.4719   12.0233    0.0000 O   0  0  0  0  0  0  0  0  0  0  0  0
  -12.9191   10.0051    0.0000 N   0  0  0  0  0  0  0  0  0  0  0  0
  -13.4210    8.5916    0.0000 C   0  0  0  0  0  0  0  0  0  0  0  0
  -14.8498    8.1349    0.0000 C   0  0  0  0  0  0  0  0  0  0  0  0
  -15.9597    9.1439    0.0000 C   0  0  0  0  0  0  0  0  0  0  0  0
  -17.4284    8.8390    0.0000 C   0  0  0  0  0  0  0  0  0  0  0  0
  -18.1722   10.1416    0.0000 N   0  0  0  0  0  0  0  0  0  0  0  0
  -17.1632   11.2515    0.0000 C   0  0  0  0  0  0  0  0  0  0  0  0
  -15.7958   10.6349    0.0000 N   0  0  0  0  0  0  0  0  0  0  0  0
  -13.6463    7.1086    0.0000 C   0  0  0  0  0  0  0  0  0  0  0  0
  -15.1429    7.0087    0.0000 O   0  0  0  0  0  0  0  0  0  0  0  0
  -13.5868    5.6098    0.0000 N   0  0  0  0  0  0  0  0  0  0  0  0
  -13.2447    4.1493    0.0000 C   0  0  0  0  0  0  0  0  0  0  0  0
  -14.1998    2.9926    0.0000 C   0  0  0  0  0  0  0  0  0  0  0  0
  -15.6790    3.2414    0.0000 C   0  0  0  0  0  0  0  0  0  0  0  0
  -16.6341    2.0847    0.0000 S   0  0  0  0  0  0  0  0  0  0  0  0
  -18.1133    2.3335    0.0000 C   0  0  0  0  0  0  0  0  0  0  0  0
  -12.6325    2.7799    0.0000 C   0  0  0  0  0  0  0  0  0  0  0  0
  -13.8375    1.8867    0.0000 O   0  0  0  0  0  0  0  0  0  0  0  0
  -11.7721    1.5512    0.0000 N   0  0  0  0  0  0  0  0  0  0  0  0
  -10.6948    0.5075    0.0000 C   0  0  0  0  0  0  0  0  0  0  0  0
   -9.4394   -0.3135    0.0000 C   0  0  0  0  0  0  0  0  0  0  0  0
   -8.0513   -0.8820    0.0000 C   0  0  0  0  0  0  0  0  0  0  0  0
   -6.5807   -1.1776    0.0000 C   0  0  0  0  0  0  0  0  0  0  0  0
   -5.0808   -1.1895    0.0000 C   0  0  0  0  0  0  0  0  0  0  0  0
  -12.1084    0.0057    0.0000 C   0  0  0  0  0  0  0  0  0  0  0  0
  -10.8729   -0.9819    0.0000 C   0  0  0  0  0  0  0  0  0  0  0  0
   -9.9253   -2.1447    0.0000 O   0  0  0  0  0  0  0  0  0  0  0  0
  -12.2518   -1.5724    0.0000 N   0  0  0  0  0  0  0  0  0  0  0  0
  -12.4299   -3.0618    0.0000 C   0  0  0  0  0  0  0  0  0  0  0  0
  -12.0878   -4.5223    0.0000 C   0  0  0  0  0  0  0  0  0  0  0  0
  -12.7410   -5.8726    0.0000 O   0  0  0  0  0  0  0  0  0  0  0  0
  -13.8088   -3.6522    0.0000 C   0  0  0  0  0  0  0  0  0  0  0  0
  -15.0096   -2.7533    0.0000 O   0  0  0  0  0  0  0  0  0  0  0  0
  -13.9869   -5.1416    0.0000 N   0  0  0  0  0  0  0  0  0  0  0  0
  -15.3658   -5.7321    0.0000 C   0  0  0  0  0  0  0  0  0  0  0  0
  -16.8635   -5.8153    0.0000 C   0  0  0  0  0  0  0  0  0  0  0  0
  -17.6844   -4.5599    0.0000 C   0  0  0  0  0  0  0  0  0  0  0  0
  -19.1821   -4.6431    0.0000 C   0  0  0  0  0  0  0  0  0  0  0  0
  -18.0264   -3.0994    0.0000 C   0  0  0  0  0  0  0  0  0  0  0  0
  -15.5439   -7.2215    0.0000 C   0  0  0  0  0  0  0  0  0  0  0  0
  -14.3431   -8.1204    0.0000 O   0  0  0  0  0  0  0  0  0  0  0  0
  -16.9228   -7.8119    0.0000 N   0  0  0  0  0  0  0  0  0  0  0  0
  -17.1009   -9.3013    0.0000 C   0  0  0  0  0  0  0  0  0  0  0  0
  -16.7588  -10.7618    0.0000 C   0  0  0  0  0  0  0  0  0  0  0  0
  -17.8526  -11.7883    0.0000 C   0  0  0  0  0  0  0  0  0  0  0  0
  -17.5105  -13.2487    0.0000 C   0  0  0  0  0  0  0  0  0  0  0  0
  -18.6043  -14.2752    0.0000 N   0  0  0  0  0  0  0  0  0  0  0  0
  -18.2623  -15.7357    0.0000 C   0  0  0  0  0  0  0  0  0  0  0  0
  -19.4730  -16.6212    0.0000 N   0  0  0  0  0  0  0  0  0  0  0  0
  -16.8265  -16.1697    0.0000 N   0  0  0  0  0  0  0  0  0  0  0  0
  -18.4797   -9.8918    0.0000 C   0  0  0  0  0  0  0  0  0  0  0  0
  -19.6805   -8.9928    0.0000 O   0  0  0  0  0  0  0  0  0  0  0  0
  -18.6578  -11.3812    0.0000 N   0  0  0  0  0  0  0  0  0  0  0  0
  -20.0367  -11.9716    0.0000 C   0  0  0  0  0  0  0  0  0  0  0  0
  -20.2148  -13.4610    0.0000 C   0  0  0  0  0  0  0  0  0  0  0  0
  -19.2672  -14.6238    0.0000 O   0  0  0  0  0  0  0  0  0  0  0  0
  -21.5937  -14.0515    0.0000 N   0  0  0  0  0  0  0  0  0  0  0  0
  -21.7718  -15.5409    0.0000 C   0  0  0  0  0  0  0  0  0  0  0  0
  -21.4298  -17.0013    0.0000 C   0  0  0  0  0  0  0  0  0  0  0  0
  -20.6089  -18.2568    0.0000 O   0  0  0  0  0  0  0  0  0  0  0  0
  -22.5236  -18.0278    0.0000 C   0  0  0  0  0  0  0  0  0  0  0  0
  -23.1507  -16.1313    0.0000 C   0  0  0  0  0  0  0  0  0  0  0  0
  -23.5090  -17.5879    0.0000 O   0  0  0  0  0  0  0  0  0  0  0  0
  -24.3515  -15.2324    0.0000 O   0  0  0  0  0  0  0  0  0  0  0  0
   29.6077   -3.1164    0.0000 H   0  0  0  0  0  0  0  0  0  0  0  0
   28.2782   -7.4077    0.0000 H   0  0  0  0  0  0  0  0  0  0  0  0
   30.2247   -9.6905    0.0000 H   0  0  0  0  0  0  0  0  0  0  0  0
   31.8751   -3.9568    0.0000 H   0  0  0  0  0  0  0  0  0  0  0  0
   39.0052   -4.6470    0.0000 H   0  0  0  0  0  0  0  0  0  0  0  0
   38.3228   -9.7982    0.0000 H   0  0  0  0  0  0  0  0  0  0  0  0
   35.3488   -9.4042    0.0000 H   0  0  0  0  0  0  0  0  0  0  0  0
   40.7239   -8.8059    0.0000 H   0  0  0  0  0  0  0  0  0  0  0  0
   31.2289   -6.2377    0.0000 H   0  0  0  0  0  0  0  0  0  0  0  0
   30.1182   -3.2853    0.0000 H   0  0  0  0  0  0  0  0  0  0  0  0
   34.8853   -1.4805    0.0000 H   0  0  0  0  0  0  0  0  0  0  0  0
   32.8254    0.1028    0.0000 H   0  0  0  0  0  0  0  0  0  0  0  0
   27.3354   -2.2978    0.0000 H   0  0  0  0  0  0  0  0  0  0  0  0
   25.8826   -5.3889    0.0000 H   0  0  0  0  0  0  0  0  0  0  0  0
   24.0654   -4.7438    0.0000 H   0  0  0  0  0  0  0  0  0  0  0  0
   25.6782   -2.0819    0.0000 H   0  0  0  0  0  0  0  0  0  0  0  0
   24.0362   -1.3833    0.0000 H   0  0  0  0  0  0  0  0  0  0  0  0
   23.1276   -1.0607    0.0000 H   0  0  0  0  0  0  0  0  0  0  0  0
   21.4126   -0.5675    0.0000 H   0  0  0  0  0  0  0  0  0  0  0  0
   20.9859   -3.6505    0.0000 H   0  0  0  0  0  0  0  0  0  0  0  0
   19.2710   -3.1573    0.0000 H   0  0  0  0  0  0  0  0  0  0  0  0
   18.3623   -2.8347    0.0000 H   0  0  0  0  0  0  0  0  0  0  0  0
   16.7203   -2.1361    0.0000 H   0  0  0  0  0  0  0  0  0  0  0  0
   18.3332    0.5258    0.0000 H   0  0  0  0  0  0  0  0  0  0  0  0
   16.5159    1.1710    0.0000 H   0  0  0  0  0  0  0  0  0  0  0  0
   15.0632   -1.9202    0.0000 H   0  0  0  0  0  0  0  0  0  0  0  0
   13.6408   -1.0428    0.0000 H   0  0  0  0  0  0  0  0  0  0  0  0
   11.8236   -0.3977    0.0000 H   0  0  0  0  0  0  0  0  0  0  0  0
   13.4365    2.2643    0.0000 H   0  0  0  0  0  0  0  0  0  0  0  0
   11.6192    2.9094    0.0000 H   0  0  0  0  0  0  0  0  0  0  0  0
   10.1969    3.7868    0.0000 H   0  0  0  0  0  0  0  0  0  0  0  0
    8.3910    3.5913    0.0000 H   0  0  0  0  0  0  0  0  0  0  0  0
    7.3787    0.0746    0.0000 H   0  0  0  0  0  0  0  0  0  0  0  0
   10.9149   -0.8842    0.0000 H   0  0  0  0  0  0  0  0  0  0  0  0
   11.6984    0.7190    0.0000 H   0  0  0  0  0  0  0  0  0  0  0  0
   10.6167    1.8898    0.0000 H   0  0  0  0  0  0  0  0  0  0  0  0
    8.2542   -2.2179    0.0000 H   0  0  0  0  0  0  0  0  0  0  0  0
    7.2575   -0.7377    0.0000 H   0  0  0  0  0  0  0  0  0  0  0  0
   10.0728   -3.0440    0.0000 H   0  0  0  0  0  0  0  0  0  0  0  0
   11.5402   -1.7928    0.0000 H   0  0  0  0  0  0  0  0  0  0  0  0
   11.0361   -0.4043    0.0000 H   0  0  0  0  0  0  0  0  0  0  0  0
    7.1716    4.9119    0.0000 H   0  0  0  0  0  0  0  0  0  0  0  0
    5.2391    5.4176    0.0000 H   0  0  0  0  0  0  0  0  0  0  0  0
    4.0788    1.1622    0.0000 H   0  0  0  0  0  0  0  0  0  0  0  0
    3.2700    2.7528    0.0000 H   0  0  0  0  0  0  0  0  0  0  0  0
    6.8831    3.0145    0.0000 H   0  0  0  0  0  0  0  0  0  0  0  0
    7.0191   -0.8938    0.0000 H   0  0  0  0  0  0  0  0  0  0  0  0
    5.5642   -1.1491    0.0000 H   0  0  0  0  0  0  0  0  0  0  0  0
    4.5675    0.3310    0.0000 H   0  0  0  0  0  0  0  0  0  0  0  0
    8.0575    0.1102    0.0000 H   0  0  0  0  0  0  0  0  0  0  0  0
    9.0305    1.4228    0.0000 H   0  0  0  0  0  0  0  0  0  0  0  0
    7.3387    3.0029    0.0000 H   0  0  0  0  0  0  0  0  0  0  0  0
    4.7966    6.8406    0.0000 H   0  0  0  0  0  0  0  0  0  0  0  0
    3.5131    5.7249    0.0000 H   0  0  0  0  0  0  0  0  0  0  0  0
    3.0465    4.3805    0.0000 H   0  0  0  0  0  0  0  0  0  0  0  0
    3.1497    3.8031    0.0000 H   0  0  0  0  0  0  0  0  0  0  0  0
    2.6036    2.8591    0.0000 H   0  0  0  0  0  0  0  0  0  0  0  0
    2.5327    2.7070    0.0000 H   0  0  0  0  0  0  0  0  0  0  0  0
    1.8876    1.4385    0.0000 H   0  0  0  0  0  0  0  0  0  0  0  0
    1.5912    1.0292    0.0000 H   0  0  0  0  0  0  0  0  0  0  0  0
    0.7591    0.0842    0.0000 H   0  0  0  0  0  0  0  0  0  0  0  0
    0.3906   -0.2616    0.0000 H   0  0  0  0  0  0  0  0  0  0  0  0
   -0.6053   -1.0321    0.0000 H   0  0  0  0  0  0  0  0  0  0  0  0
   -1.0326   -1.3020    0.0000 H   0  0  0  0  0  0  0  0  0  0  0  0
   -2.3395   -1.8652    0.0000 H   0  0  0  0  0  0  0  0  0  0  0  0
   -3.1945   -2.3599    0.0000 H   0  0  0  0  0  0  0  0  0  0  0  0
    4.7768    7.3380    0.0000 H   0  0  0  0  0  0  0  0  0  0  0  0
    4.3791    8.9227    0.0000 H   0  0  0  0  0  0  0  0  0  0  0  0
    2.6058    9.1220    0.0000 H   0  0  0  0  0  0  0  0  0  0  0  0
    2.8683   10.3319    0.0000 H   0  0  0  0  0  0  0  0  0  0  0  0
    2.1916   11.0961    0.0000 H   0  0  0  0  0  0  0  0  0  0  0  0
    1.5506   14.0513    0.0000 H   0  0  0  0  0  0  0  0  0  0  0  0
   -0.0489   13.2602    0.0000 H   0  0  0  0  0  0  0  0  0  0  0  0
    4.1827   12.2354    0.0000 H   0  0  0  0  0  0  0  0  0  0  0  0
    3.0564   11.2797    0.0000 H   0  0  0  0  0  0  0  0  0  0  0  0
    5.4452   15.6888    0.0000 H   0  0  0  0  0  0  0  0  0  0  0  0
    6.3151   13.9679    0.0000 H   0  0  0  0  0  0  0  0  0  0  0  0
    4.9546   12.8133    0.0000 H   0  0  0  0  0  0  0  0  0  0  0  0
   -0.6291   14.5294    0.0000 H   0  0  0  0  0  0  0  0  0  0  0  0
   -1.5629   14.8517    0.0000 H   0  0  0  0  0  0  0  0  0  0  0  0
   -1.8698   16.4062    0.0000 H   0  0  0  0  0  0  0  0  0  0  0  0
   -3.6016   16.8365    0.0000 H   0  0  0  0  0  0  0  0  0  0  0  0
   -4.5195   15.3063    0.0000 H   0  0  0  0  0  0  0  0  0  0  0  0
   -5.5110   16.0477    0.0000 H   0  0  0  0  0  0  0  0  0  0  0  0
   -6.4873   15.7496    0.0000 H   0  0  0  0  0  0  0  0  0  0  0  0
   -9.4417   16.3942    0.0000 H   0  0  0  0  0  0  0  0  0  0  0  0
   -9.3866   14.6106    0.0000 H   0  0  0  0  0  0  0  0  0  0  0  0
   -8.7612   18.0783    0.0000 H   0  0  0  0  0  0  0  0  0  0  0  0
   -6.8343   18.1548    0.0000 H   0  0  0  0  0  0  0  0  0  0  0  0
   -6.2950   16.6125    0.0000 H   0  0  0  0  0  0  0  0  0  0  0  0
  -10.7821   14.6101    0.0000 H   0  0  0  0  0  0  0  0  0  0  0  0
  -11.4631   13.8945    0.0000 H   0  0  0  0  0  0  0  0  0  0  0  0
  -14.1155   12.8646    0.0000 H   0  0  0  0  0  0  0  0  0  0  0  0
  -13.1049   11.3939    0.0000 H   0  0  0  0  0  0  0  0  0  0  0  0
  -14.4536   14.6493    0.0000 H   0  0  0  0  0  0  0  0  0  0  0  0
  -14.2786   10.6391    0.0000 H   0  0  0  0  0  0  0  0  0  0  0  0
  -14.4647    9.6689    0.0000 H   0  0  0  0  0  0  0  0  0  0  0  0
  -16.1392    7.3685    0.0000 H   0  0  0  0  0  0  0  0  0  0  0  0
  -14.4939    6.6777    0.0000 H   0  0  0  0  0  0  0  0  0  0  0  0
  -18.0450    7.4716    0.0000 H   0  0  0  0  0  0  0  0  0  0  0  0
  -19.6632   10.3055    0.0000 H   0  0  0  0  0  0  0  0  0  0  0  0
  -17.4680   12.7202    0.0000 H   0  0  0  0  0  0  0  0  0  0  0  0
  -15.0867    5.5908    0.0000 H   0  0  0  0  0  0  0  0  0  0  0  0
  -14.6526    4.6668    0.0000 H   0  0  0  0  0  0  0  0  0  0  0  0
  -14.8702    1.6508    0.0000 H   0  0  0  0  0  0  0  0  0  0  0  0
  -13.1126    1.9591    0.0000 H   0  0  0  0  0  0  0  0  0  0  0  0
  -16.8841    4.1346    0.0000 H   0  0  0  0  0  0  0  0  0  0  0  0
  -15.5341    4.7344    0.0000 H   0  0  0  0  0  0  0  0  0  0  0  0
  -19.0683    1.1768    0.0000 H   0  0  0  0  0  0  0  0  0  0  0  0
  -19.4182    3.0731    0.0000 H   0  0  0  0  0  0  0  0  0  0  0  0
  -17.7875    3.7977    0.0000 H   0  0  0  0  0  0  0  0  0  0  0  0
  -13.0236    0.7243    0.0000 H   0  0  0  0  0  0  0  0  0  0  0  0
   -9.3324   -1.8097    0.0000 H   0  0  0  0  0  0  0  0  0  0  0  0
  -10.5101   -1.3641    0.0000 H   0  0  0  0  0  0  0  0  0  0  0  0
   -7.8426   -2.3674    0.0000 H   0  0  0  0  0  0  0  0  0  0  0  0
   -8.9038   -2.1162    0.0000 H   0  0  0  0  0  0  0  0  0  0  0  0
   -5.9253   -2.5268    0.0000 H   0  0  0  0  0  0  0  0  0  0  0  0
   -7.3471   -2.4670    0.0000 H   0  0  0  0  0  0  0  0  0  0  0  0
   -4.9500   -2.6838    0.0000 H   0  0  0  0  0  0  0  0  0  0  0  0
  -12.7294   -1.3597    0.0000 H   0  0  0  0  0  0  0  0  0  0  0  0
  -13.6083    0.0176    0.0000 H   0  0  0  0  0  0  0  0  0  0  0  0
  -12.7076    1.3807    0.0000 H   0  0  0  0  0  0  0  0  0  0  0  0
  -13.5532   -0.8265    0.0000 H   0  0  0  0  0  0  0  0  0  0  0  0
  -10.9322   -2.9785    0.0000 H   0  0  0  0  0  0  0  0  0  0  0  0
  -11.2669   -5.7777    0.0000 H   0  0  0  0  0  0  0  0  0  0  0  0
  -10.7089   -3.9318    0.0000 H   0  0  0  0  0  0  0  0  0  0  0  0
  -12.8396   -7.0092    0.0000 H   0  0  0  0  0  0  0  0  0  0  0  0
  -12.9046   -6.1802    0.0000 H   0  0  0  0  0  0  0  0  0  0  0  0
  -15.5272   -4.2408    0.0000 H   0  0  0  0  0  0  0  0  0  0  0  0
  -18.2423   -6.4058    0.0000 H   0  0  0  0  0  0  0  0  0  0  0  0
  -16.8850   -7.3152    0.0000 H   0  0  0  0  0  0  0  0  0  0  0  0
  -16.3877   -3.8058    0.0000 H   0  0  0  0  0  0  0  0  0  0  0  0
  -20.1499   -3.4972    0.0000 H   0  0  0  0  0  0  0  0  0  0  0  0
  -20.5610   -5.2336    0.0000 H   0  0  0  0  0  0  0  0  0  0  0  0
  -19.0206   -6.1344    0.0000 H   0  0  0  0  0  0  0  0  0  0  0  0
  -19.3987   -2.4936    0.0000 H   0  0  0  0  0  0  0  0  0  0  0  0
  -17.8483   -1.6100    0.0000 H   0  0  0  0  0  0  0  0  0  0  0  0
  -16.5287   -3.0162    0.0000 H   0  0  0  0  0  0  0  0  0  0  0  0
  -18.2242   -7.0661    0.0000 H   0  0  0  0  0  0  0  0  0  0  0  0
  -15.6032   -9.2181    0.0000 H   0  0  0  0  0  0  0  0  0  0  0  0
  -15.7910  -11.9078    0.0000 H   0  0  0  0  0  0  0  0  0  0  0  0
  -15.3799  -10.1713    0.0000 H   0  0  0  0  0  0  0  0  0  0  0  0
  -19.2315  -12.3787    0.0000 H   0  0  0  0  0  0  0  0  0  0  0  0
  -19.1669  -11.0653    0.0000 H   0  0  0  0  0  0  0  0  0  0  0  0
  -16.6896  -14.5042    0.0000 H   0  0  0  0  0  0  0  0  0  0  0  0
  -16.0700  -12.8308    0.0000 H   0  0  0  0  0  0  0  0  0  0  0  0
  -20.1025  -14.2015    0.0000 H   0  0  0  0  0  0  0  0  0  0  0  0
  -19.0140  -18.2226    0.0000 H   0  0  0  0  0  0  0  0  0  0  0  0
  -20.7464  -16.1695    0.0000 H   0  0  0  0  0  0  0  0  0  0  0  0
  -16.4844  -17.6302    0.0000 H   0  0  0  0  0  0  0  0  0  0  0  0
  -15.7327  -15.1432    0.0000 H   0  0  0  0  0  0  0  0  0  0  0  0
  -17.7102  -12.5439    0.0000 H   0  0  0  0  0  0  0  0  0  0  0  0
  -21.5344  -12.0549    0.0000 H   0  0  0  0  0  0  0  0  0  0  0  0
  -20.3788  -10.5111    0.0000 H   0  0  0  0  0  0  0  0  0  0  0  0
  -22.7945  -13.1525    0.0000 H   0  0  0  0  0  0  0  0  0  0  0  0
  -20.2741  -15.4576    0.0000 H   0  0  0  0  0  0  0  0  0  0  0  0
  -20.2347  -16.0948    0.0000 H   0  0  0  0  0  0  0  0  0  0  0  0
  -21.1174  -19.6679    0.0000 H   0  0  0  0  0  0  0  0  0  0  0  0
  -22.3621  -19.5191    0.0000 H   0  0  0  0  0  0  0  0  0  0  0  0
  -23.9025  -18.6183    0.0000 H   0  0  0  0  0  0  0  0  0  0  0  0
  -23.7400  -17.1501    0.0000 H   0  0  0  0  0  0  0  0  0  0  0  0
  1  2  1  0
  2  3  1  0
  3  4  2  0
  4  5  1  0
  5  6  2  0
  6  7  1  0
  7  8  2  0
  7  9  1  0
  9 10  1  0
 10 11  1  0
 11 12  2  0
  9 13  1  0
 13 14  1  0
 14 15  2  0
 15 16  1  0
 16 17  2  0
 17 18  1  0
 16 19  1  0
 14 20  1  0
 20 21  1  0
 21 22  2  0
 22 23  1  0
 23 24  2  0
 24 25  1  0
 25 26  2  0
 25 27  1  0
  1 28  2  0
  1 29  1  0
 29 30  1  0
 30 31  1  0
 31 32  1  0
 32 33  1  0
 33 34  1  0
 34 35  1  0
 35 36  1  0
 36 37  1  0
 37 38  1  0
 38 39  1  0
 39 40  2  0
 39 41  1  0
 41 42  1  0
 42 43  1  0
 43 44  2  0
 43 45  1  0
 45 46  1  0
 46 47  1  0
 47 48  1  0
 47 49  1  0
 49 50  1  0
 46 51  1  0
 51 52  2  0
 51 53  1  0
 53 54  1  0
 54 55  1  0
 55 56  1  0
 56 57  1  0
 56 58  1  0
 54 59  1  0
 59 60  2  0
 59 61  1  0
 62 61  1  6
 62 63  1  0
 63 64  1  0
 64 65  1  0
 65 66  1  0
 66 67  1  0
 67 68  1  0
 68 69  1  0
 62 70  1  0
 62 71  1  0
 71 72  2  0
 71 73  1  0
 73 74  1  0
 74 75  1  0
 75 76  1  0
 76 77  1  0
 77 78  1  0
 74 79  1  0
 79 80  2  0
 79 81  1  0
 81 82  1  0
 82 83  1  0
 82 84  1  0
 84 85  2  0
 84 86  1  0
 86 87  1  0
 87 88  1  0
 88 89  1  0
 87 90  1  0
 90 91  2  0
 90 92  1  0
 92 93  1  0
 93 94  1  0
 94 95  1  0
 93 96  1  0
 96 97  2  0
 96 98  1  0
 98 99  1  0
 99100  1  0
100101  1  0
101102  2  0
102103  1  0
103104  1  0
104105  2  0
 99106  1  0
106107  2  0
106108  1  0
108109  1  0
109110  1  0
110111  1  0
111112  1  0
112113  1  0
109114  1  0
114115  2  0
114116  1  0
116117  1  0
117118  1  0
118119  1  0
119120  1  0
120121  1  0
117122  1  0
117123  1  1
123124  2  0
123125  1  0
125126  1  0
126127  1  0
127128  1  0
126129  1  0
129130  2  0
129131  1  0
131132  1  0
132133  1  0
133134  1  0
134135  1  0
134136  1  0
132137  1  0
137138  2  0
137139  1  0
139140  1  0
140141  1  0
141142  1  0
142143  1  0
143144  1  0
144145  1  0
145146  2  3
145147  1  0
140148  1  0
148149  2  0
148150  1  0
150151  1  0
151152  1  0
152153  2  0
152154  1  0
154155  1  0
155156  1  0
156157  1  0
156158  1  0
155159  1  0
159160  2  0
159161  1  0
  8  3  1  0
105101  1  0
 11  6  1  0
 18 13  2  0
 69121  2  0
 22  9  1  0
 26 21  1  0
  2162  1  0
  4163  1  0
  5164  1  0
  8165  1  0
 15166  1  0
 17167  1  0
 18168  1  0
 19169  1  0
 23170  1  0
 24171  1  0
 26172  1  0
 27173  1  0
 29174  1  0
 30175  1  0
 30176  1  0
 31177  1  0
 31178  1  0
 33179  1  0
 33180  1  0
 34181  1  0
 34182  1  0
 36183  1  0
 36184  1  0
 37185  1  0
 37186  1  0
 38187  1  0
 41188  1  0
 41189  1  0
 42190  1  0
 42191  1  0
 45192  1  0
 46193  1  1
 47194  1  6
 48195  1  0
 48196  1  0
 48197  1  0
 49198  1  0
 49199  1  0
 50200  1  0
 50201  1  0
 50202  1  0
 53203  1  0
 54204  1  1
 55205  1  0
 55206  1  0
 56207  1  0
 57208  1  0
 57209  1  0
 57210  1  0
 58211  1  0
 58212  1  0
 58213  1  0
 61214  1  0
 63215  1  0
 63216  1  0
 64217  1  0
 64218  1  0
 65219  1  0
 65220  1  0
 66221  1  0
 66222  1  0
 67223  1  0
 67224  1  0
 68225  1  0
 68226  1  0
 69227  1  0
 70228  1  0
 70229  1  0
 70230  1  0
 73231  1  0
 74232  1  6
 75233  1  0
 75234  1  0
 76235  1  0
 76236  1  0
 78237  1  0
 78238  1  0
 78239  1  0
 81240  1  0
 82241  1  6
 83242  1  0
 83243  1  0
 83244  1  0
 86245  1  0
 87246  1  6
 88247  1  0
 88248  1  0
 89249  1  0
 89250  1  0
 89251  1  0
 92252  1  0
 93253  1  6
 94254  1  0
 94255  1  0
 95256  1  0
 98257  1  0
 99258  1  6
100259  1  0
100260  1  0
102261  1  0
103262  1  0
104263  1  0
108264  1  0
109265  1  6
110266  1  0
110267  1  0
111268  1  0
111269  1  0
113270  1  0
113271  1  0
113272  1  0
116273  1  0
118274  1  0
118275  1  0
119276  1  0
119277  1  0
120278  1  0
120279  1  0
121280  1  0
122281  1  0
122282  1  0
122283  1  0
125284  1  0
126285  1  1
127286  1  0
127287  1  0
128288  1  0
131289  1  0
132290  1  6
133291  1  0
133292  1  0
134293  1  0
135294  1  0
135295  1  0
135296  1  0
136297  1  0
136298  1  0
136299  1  0
139300  1  0
140301  1  1
141302  1  0
141303  1  0
142304  1  0
142305  1  0
143306  1  0
143307  1  0
144308  1  0
146309  1  0
146310  1  0
147311  1  0
147312  1  0
150313  1  0
151314  1  0
151315  1  0
154316  1  0
155317  1  1
156318  1  1
157319  1  0
158320  1  0
158321  1  0
158322  1  0
M  CHG  2 146   1 161  -1
M  END
