
     RDKit          2D

460466  0  0  0  0  0  0  0  0999 V2000
    7.4059   10.5743    0.0000 C   0  0  0  0  0  0  0  0  0  0  0  0
    5.9504   10.2120    0.0000 N   0  0  0  0  0  0  0  0  0  0  0  0
    4.9088   11.2914    0.0000 C   0  0  0  0  0  0  0  0  0  0  0  0
    3.4532   10.9291    0.0000 C   0  0  0  0  0  0  0  0  0  0  0  0
    2.4116   12.0085    0.0000 C   0  0  0  0  0  0  0  0  0  0  0  0
    2.8256   13.4502    0.0000 C   0  0  0  0  0  0  0  0  0  0  0  0
    4.2812   13.8125    0.0000 C   0  0  0  0  0  0  0  0  0  0  0  0
    5.3228   12.7331    0.0000 C   0  0  0  0  0  0  0  0  0  0  0  0
    4.3864   15.3088    0.0000 C   0  0  0  0  0  0  0  0  0  0  0  0
    2.9959   15.8713    0.0000 O   0  0  0  0  0  0  0  0  0  0  0  0
    2.0312   14.7226    0.0000 C   0  0  0  0  0  0  0  0  0  0  0  0
    0.5349   14.8278    0.0000 O   0  0  0  0  0  0  0  0  0  0  0  0
    4.3346   16.8079    0.0000 C   0  0  0  0  0  0  0  0  0  0  0  0
    5.6070   17.6023    0.0000 C   0  0  0  0  0  0  0  0  0  0  0  0
    5.5552   19.1014    0.0000 C   0  0  0  0  0  0  0  0  0  0  0  0
    4.2311   19.8062    0.0000 C   0  0  0  0  0  0  0  0  0  0  0  0
    2.9587   19.0118    0.0000 C   0  0  0  0  0  0  0  0  0  0  0  0
    3.0105   17.5127    0.0000 C   0  0  0  0  0  0  0  0  0  0  0  0
    4.1793   21.3053    0.0000 O   0  0  0  0  0  0  0  0  0  0  0  0
    6.9312   16.8976    0.0000 O   0  0  0  0  0  0  0  0  0  0  0  0
    6.9829   15.3985    0.0000 C   0  0  0  0  0  0  0  0  0  0  0  0
    5.7106   14.6041    0.0000 C   0  0  0  0  0  0  0  0  0  0  0  0
    6.3561   13.4757    0.0000 C   0  0  0  0  0  0  0  0  0  0  0  0
    7.0623   13.0999    0.0000 C   0  0  0  0  0  0  0  0  0  0  0  0
    7.7409   13.5236    0.0000 C   0  0  0  0  0  0  0  0  0  0  0  0
    7.7133   14.3231    0.0000 C   0  0  0  0  0  0  0  0  0  0  0  0
    9.6830   12.4900    0.0000 O   0  0  0  0  0  0  0  0  0  0  0  0
    7.8200   12.0161    0.0000 S   0  0  0  0  0  0  0  0  0  0  0  0
    8.4475    9.4949    0.0000 N   0  0  0  0  0  0  0  0  0  0  0  0
    9.9031    9.8572    0.0000 C   0  0  0  0  0  0  0  0  0  0  0  0
   10.9447    8.7778    0.0000 C   0  0  0  0  0  0  0  0  0  0  0  0
   12.4003    9.1402    0.0000 C   0  0  0  0  0  0  0  0  0  0  0  0
   12.5252    9.9275    0.0000 O   0  0  0  0  0  0  0  0  0  0  0  0
   13.4418    8.0608    0.0000 N   0  0  0  0  0  0  0  0  0  0  0  0
   14.8974    8.4231    0.0000 C   0  0  0  0  0  0  0  0  0  0  0  0
   14.2878    9.7936    0.0000 C   0  0  0  0  0  0  0  0  0  0  0  0
   12.8264   10.1317    0.0000 O   0  0  0  0  0  0  0  0  0  0  0  0
   16.3892    8.2657    0.0000 C   0  0  0  0  0  0  0  0  0  0  0  0
   16.9515    9.6563    0.0000 O   0  0  0  0  0  0  0  0  0  0  0  0
   16.9987    6.8952    0.0000 N   0  0  0  0  0  0  0  0  0  0  0  0
   18.4905    6.7378    0.0000 C   0  0  0  0  0  0  0  0  0  0  0  0
   18.3864    8.2342    0.0000 C   0  0  0  0  0  0  0  0  0  0  0  0
   17.0384    8.8923    0.0000 C   0  0  0  0  0  0  0  0  0  0  0  0
   16.9344   10.3887    0.0000 C   0  0  0  0  0  0  0  0  0  0  0  0
   15.6767   11.2061    0.0000 O   0  0  0  0  0  0  0  0  0  0  0  0
   18.1783   11.2270    0.0000 O   0  0  0  0  0  0  0  0  0  0  0  0
   19.8384    6.0798    0.0000 C   0  0  0  0  0  0  0  0  0  0  0  0
   20.8425    7.1941    0.0000 O   0  0  0  0  0  0  0  0  0  0  0  0
   19.9425    4.5834    0.0000 N   0  0  0  0  0  0  0  0  0  0  0  0
   21.2904    3.9253    0.0000 C   0  0  0  0  0  0  0  0  0  0  0  0
   21.7044    5.3670    0.0000 C   0  0  0  0  0  0  0  0  0  0  0  0
   20.6628    6.4464    0.0000 C   0  0  0  0  0  0  0  0  0  0  0  0
   21.0768    7.8882    0.0000 C   0  0  0  0  0  0  0  0  0  0  0  0
   20.1746    9.0865    0.0000 O   0  0  0  0  0  0  0  0  0  0  0  0
   22.5324    8.2505    0.0000 O   0  0  0  0  0  0  0  0  0  0  0  0
   22.3320    2.8459    0.0000 C   0  0  0  0  0  0  0  0  0  0  0  0
   23.6566    3.5497    0.0000 O   0  0  0  0  0  0  0  0  0  0  0  0
   21.9180    1.4042    0.0000 N   0  0  0  0  0  0  0  0  0  0  0  0
   22.9596    0.3248    0.0000 C   0  0  0  0  0  0  0  0  0  0  0  0
   23.8417    1.5379    0.0000 C   0  0  0  0  0  0  0  0  0  0  0  0
   23.2321    2.9085    0.0000 C   0  0  0  0  0  0  0  0  0  0  0  0
   24.1143    4.1217    0.0000 C   0  0  0  0  0  0  0  0  0  0  0  0
   22.1905    3.9879    0.0000 C   0  0  0  0  0  0  0  0  0  0  0  0
   23.5691   -1.0458    0.0000 C   0  0  0  0  0  0  0  0  0  0  0  0
   25.0689   -1.0201    0.0000 O   0  0  0  0  0  0  0  0  0  0  0  0
   22.6870   -2.2590    0.0000 N   0  0  0  0  0  0  0  0  0  0  0  0
   23.2966   -3.6295    0.0000 C   0  0  0  0  0  0  0  0  0  0  0  0
   24.5405   -2.7912    0.0000 C   0  0  0  0  0  0  0  0  0  0  0  0
   24.6196   -1.2933    0.0000 C   0  0  0  0  0  0  0  0  0  0  0  0
   23.4007   -5.1259    0.0000 C   0  0  0  0  0  0  0  0  0  0  0  0
   24.8188   -5.6148    0.0000 O   0  0  0  0  0  0  0  0  0  0  0  0
   22.1568   -5.9642    0.0000 N   0  0  0  0  0  0  0  0  0  0  0  0
   22.2609   -7.4606    0.0000 C   0  0  0  0  0  0  0  0  0  0  0  0
   23.7164   -7.0983    0.0000 C   0  0  0  0  0  0  0  0  0  0  0  0
   21.8469   -8.9024    0.0000 C   0  0  0  0  0  0  0  0  0  0  0  0
   23.1187   -9.6976    0.0000 O   0  0  0  0  0  0  0  0  0  0  0  0
   20.3913   -9.2647    0.0000 N   0  0  0  0  0  0  0  0  0  0  0  0
   19.9773  -10.7064    0.0000 C   0  0  0  0  0  0  0  0  0  0  0  0
   21.4690  -10.8638    0.0000 C   0  0  0  0  0  0  0  0  0  0  0  0
   22.3511   -9.6506    0.0000 C   0  0  0  0  0  0  0  0  0  0  0  0
   23.8429   -9.8079    0.0000 C   0  0  0  0  0  0  0  0  0  0  0  0
   24.8663   -8.7113    0.0000 O   0  0  0  0  0  0  0  0  0  0  0  0
   24.4524  -11.1785    0.0000 O   0  0  0  0  0  0  0  0  0  0  0  0
   19.0951  -11.9196    0.0000 C   0  0  0  0  0  0  0  0  0  0  0  0
   19.8672  -13.2056    0.0000 O   0  0  0  0  0  0  0  0  0  0  0  0
   17.6034  -11.7623    0.0000 N   0  0  0  0  0  0  0  0  0  0  0  0
   16.7213  -12.9754    0.0000 C   0  0  0  0  0  0  0  0  0  0  0  0
   18.1884  -13.2878    0.0000 C   0  0  0  0  0  0  0  0  0  0  0  0
   15.4774  -13.8138    0.0000 C   0  0  0  0  0  0  0  0  0  0  0  0
   15.9405  -15.2405    0.0000 O   0  0  0  0  0  0  0  0  0  0  0  0
   14.1295  -13.1557    0.0000 N   0  0  0  0  0  0  0  0  0  0  0  0
   12.8856  -13.9940    0.0000 C   0  0  0  0  0  0  0  0  0  0  0  0
   13.9272  -15.0734    0.0000 C   0  0  0  0  0  0  0  0  0  0  0  0
   15.3827  -14.7111    0.0000 C   0  0  0  0  0  0  0  0  0  0  0  0
   15.9452  -13.3205    0.0000 C   0  0  0  0  0  0  0  0  0  0  0  0
   17.4415  -13.4257    0.0000 N   0  0  0  0  0  0  0  0  0  0  0  0
   17.8038  -14.8813    0.0000 C   0  0  0  0  0  0  0  0  0  0  0  0
   16.5314  -15.6757    0.0000 N   0  0  0  0  0  0  0  0  0  0  0  0
   11.4300  -14.3563    0.0000 C   0  0  0  0  0  0  0  0  0  0  0  0
   11.3772  -15.8554    0.0000 O   0  0  0  0  0  0  0  0  0  0  0  0
   10.3884  -13.2769    0.0000 N   0  0  0  0  0  0  0  0  0  0  0  0
    8.9328  -13.6393    0.0000 C   0  0  0  0  0  0  0  0  0  0  0  0
    9.5424  -15.0098    0.0000 C   0  0  0  0  0  0  0  0  0  0  0  0
   11.0341  -15.1672    0.0000 C   0  0  0  0  0  0  0  0  0  0  0  0
   11.6437  -16.5377    0.0000 N   0  0  0  0  0  0  0  0  0  0  0  0
   12.1836  -14.2035    0.0000 O   0  0  0  0  0  0  0  0  0  0  0  0
    7.4411  -13.4819    0.0000 C   0  0  0  0  0  0  0  0  0  0  0  0
    6.8788  -14.8725    0.0000 O   0  0  0  0  0  0  0  0  0  0  0  0
    6.8315  -12.1114    0.0000 N   0  0  0  0  0  0  0  0  0  0  0  0
    5.3398  -11.9540    0.0000 C   0  0  0  0  0  0  0  0  0  0  0  0
    5.4439  -13.4504    0.0000 C   0  0  0  0  0  0  0  0  0  0  0  0
    6.7918  -14.1085    0.0000 C   0  0  0  0  0  0  0  0  0  0  0  0
    6.8959  -15.6048    0.0000 C   0  0  0  0  0  0  0  0  0  0  0  0
    8.2835  -14.2658    0.0000 C   0  0  0  0  0  0  0  0  0  0  0  0
    3.9919  -11.2959    0.0000 C   0  0  0  0  0  0  0  0  0  0  0  0
    2.8595  -12.2796    0.0000 O   0  0  0  0  0  0  0  0  0  0  0  0
    3.8878   -9.7995    0.0000 N   0  0  0  0  0  0  0  0  0  0  0  0
    2.5399   -9.1415    0.0000 C   0  0  0  0  0  0  0  0  0  0  0  0
    2.1259  -10.5832    0.0000 C   0  0  0  0  0  0  0  0  0  0  0  0
    3.0281  -11.7815    0.0000 S   0  0  0  0  0  0  0  0  0  0  0  0
    1.4983   -8.0621    0.0000 C   0  0  0  0  0  0  0  0  0  0  0  0
    0.0977   -8.5991    0.0000 O   0  0  0  0  0  0  0  0  0  0  0  0
    1.9123   -6.6203    0.0000 N   0  0  0  0  0  0  0  0  0  0  0  0
    0.8707   -5.5409    0.0000 C   0  0  0  0  0  0  0  0  0  0  0  0
   -0.0114   -6.7541    0.0000 C   0  0  0  0  0  0  0  0  0  0  0  0
   -1.2553   -7.5924    0.0000 O   0  0  0  0  0  0  0  0  0  0  0  0
    0.4265   -8.1888    0.0000 C   0  0  0  0  0  0  0  0  0  0  0  0
    0.2611   -4.1704    0.0000 C   0  0  0  0  0  0  0  0  0  0  0  0
   -1.2244   -4.3787    0.0000 O   0  0  0  0  0  0  0  0  0  0  0  0
    1.1433   -2.9572    0.0000 N   0  0  0  0  0  0  0  0  0  0  0  0
    0.5337   -1.5866    0.0000 C   0  0  0  0  0  0  0  0  0  0  0  0
   -0.4236   -2.7414    0.0000 C   0  0  0  0  0  0  0  0  0  0  0  0
   -1.5822   -3.6942    0.0000 C   0  0  0  0  0  0  0  0  0  0  0  0
   -2.9001   -4.4105    0.0000 C   0  0  0  0  0  0  0  0  0  0  0  0
   -4.3298   -4.8644    0.0000 C   0  0  0  0  0  0  0  0  0  0  0  0
   -5.8195   -5.0396    0.0000 C   0  0  0  0  0  0  0  0  0  0  0  0
   -7.3155   -4.9296    0.0000 C   0  0  0  0  0  0  0  0  0  0  0  0
   -8.7636   -4.5385    0.0000 C   0  0  0  0  0  0  0  0  0  0  0  0
    2.0324   -1.6491    0.0000 C   0  0  0  0  0  0  0  0  0  0  0  0
    1.2551   -0.2715    0.0000 C   0  0  0  0  0  0  0  0  0  0  0  0
    2.6949   -0.6924    0.0000 O   0  0  0  0  0  0  0  0  0  0  0  0
    1.7147    1.1563    0.0000 N   0  0  0  0  0  0  0  0  0  0  0  0
    1.8957    2.6454    0.0000 C   0  0  0  0  0  0  0  0  0  0  0  0
    3.1902    3.4031    0.0000 C   0  0  0  0  0  0  0  0  0  0  0  0
    4.4937    2.6609    0.0000 C   0  0  0  0  0  0  0  0  0  0  0  0
    5.7882    3.4186    0.0000 C   0  0  0  0  0  0  0  0  0  0  0  0
    5.4647    1.5176    0.0000 C   0  0  0  0  0  0  0  0  0  0  0  0
    1.7916    4.1418    0.0000 C   0  0  0  0  0  0  0  0  0  0  0  0
    3.2303    4.5661    0.0000 O   0  0  0  0  0  0  0  0  0  0  0  0
    1.4062    5.5914    0.0000 N   0  0  0  0  0  0  0  0  0  0  0  0
    0.7535    6.9419    0.0000 C   0  0  0  0  0  0  0  0  0  0  0  0
    1.4328    8.2793    0.0000 C   0  0  0  0  0  0  0  0  0  0  0  0
    2.9307    8.3596    0.0000 C   0  0  0  0  0  0  0  0  0  0  0  0
    3.6101    9.6969    0.0000 C   0  0  0  0  0  0  0  0  0  0  0  0
    5.1079    9.7772    0.0000 O   0  0  0  0  0  0  0  0  0  0  0  0
    2.5117   10.7185    0.0000 O   0  0  0  0  0  0  0  0  0  0  0  0
   -0.1431    8.1445    0.0000 C   0  0  0  0  0  0  0  0  0  0  0  0
    0.8378    9.2793    0.0000 O   0  0  0  0  0  0  0  0  0  0  0  0
   -1.2510    9.1557    0.0000 N   0  0  0  0  0  0  0  0  0  0  0  0
   -2.5303    9.9389    0.0000 C   0  0  0  0  0  0  0  0  0  0  0  0
   -2.6818   11.4312    0.0000 C   0  0  0  0  0  0  0  0  0  0  0  0
   -1.4652   12.3086    0.0000 C   0  0  0  0  0  0  0  0  0  0  0  0
   -1.6166   13.8009    0.0000 N   0  0  0  0  0  0  0  0  0  0  0  0
   -0.0970   11.6936    0.0000 O   0  0  0  0  0  0  0  0  0  0  0  0
   -3.9347   10.4658    0.0000 C   0  0  0  0  0  0  0  0  0  0  0  0
   -3.7231   11.9508    0.0000 O   0  0  0  0  0  0  0  0  0  0  0  0
   -5.4134   10.7175    0.0000 N   0  0  0  0  0  0  0  0  0  0  0  0
   -6.9131   10.6848    0.0000 C   0  0  0  0  0  0  0  0  0  0  0  0
   -7.8473   11.8583    0.0000 C   0  0  0  0  0  0  0  0  0  0  0  0
   -8.3794   10.3688    0.0000 C   0  0  0  0  0  0  0  0  0  0  0  0
   -9.0042   11.7325    0.0000 O   0  0  0  0  0  0  0  0  0  0  0  0
   -9.7595    9.7810    0.0000 N   0  0  0  0  0  0  0  0  0  0  0  0
  -11.0034    8.9427    0.0000 C   0  0  0  0  0  0  0  0  0  0  0  0
  -12.4238    9.4248    0.0000 C   0  0  0  0  0  0  0  0  0  0  0  0
  -12.5349   10.9207    0.0000 C   0  0  0  0  0  0  0  0  0  0  0  0
  -13.9234    9.3921    0.0000 C   0  0  0  0  0  0  0  0  0  0  0  0
  -14.7016   10.6744    0.0000 C   0  0  0  0  0  0  0  0  0  0  0  0
  -12.0661    7.8841    0.0000 C   0  0  0  0  0  0  0  0  0  0  0  0
  -13.2209    8.8414    0.0000 O   0  0  0  0  0  0  0  0  0  0  0  0
  -12.9093    6.6436    0.0000 N   0  0  0  0  0  0  0  0  0  0  0  0
  -13.5025    5.2658    0.0000 C   0  0  0  0  0  0  0  0  0  0  0  0
  -14.9581    4.9035    0.0000 C   0  0  0  0  0  0  0  0  0  0  0  0
  -15.9996    5.9829    0.0000 C   0  0  0  0  0  0  0  0  0  0  0  0
  -17.4552    5.6206    0.0000 C   0  0  0  0  0  0  0  0  0  0  0  0
  -18.4968    6.7000    0.0000 N   0  0  0  0  0  0  0  0  0  0  0  0
  -17.8692    4.1788    0.0000 O   0  0  0  0  0  0  0  0  0  0  0  0
  -13.8242    3.8007    0.0000 C   0  0  0  0  0  0  0  0  0  0  0  0
  -15.3242    3.7989    0.0000 O   0  0  0  0  0  0  0  0  0  0  0  0
  -13.8629    2.3012    0.0000 N   0  0  0  0  0  0  0  0  0  0  0  0
  -13.6170    0.8215    0.0000 C   0  0  0  0  0  0  0  0  0  0  0  0
  -13.0956   -0.5849    0.0000 C   0  0  0  0  0  0  0  0  0  0  0  0
  -12.3174   -1.8673    0.0000 C   0  0  0  0  0  0  0  0  0  0  0  0
  -11.3106   -2.9792    0.0000 C   0  0  0  0  0  0  0  0  0  0  0  0
  -10.1116   -3.8805    0.0000 C   0  0  0  0  0  0  0  0  0  0  0  0
  -15.0520    1.2584    0.0000 C   0  0  0  0  0  0  0  0  0  0  0  0
  -14.6456   -0.2702    0.0000 C   0  0  0  0  0  0  0  0  0  0  0  0
  -14.5749   -1.7686    0.0000 O   0  0  0  0  0  0  0  0  0  0  0  0
  -16.1054    0.0747    0.0000 N   0  0  0  0  0  0  0  0  0  0  0  0
  -17.1341   -1.0171    0.0000 C   0  0  0  0  0  0  0  0  0  0  0  0
  -17.7273   -2.3948    0.0000 C   0  0  0  0  0  0  0  0  0  0  0  0
  -17.8135   -3.8923    0.0000 O   0  0  0  0  0  0  0  0  0  0  0  0
  -19.1845   -2.7502    0.0000 C   0  0  0  0  0  0  0  0  0  0  0  0
  -18.5939   -0.6721    0.0000 C   0  0  0  0  0  0  0  0  0  0  0  0
  -19.0251    0.7646    0.0000 O   0  0  0  0  0  0  0  0  0  0  0  0
  -19.6225   -1.7639    0.0000 N   0  0  0  0  0  0  0  0  0  0  0  0
  -21.0823   -1.4189    0.0000 C   0  0  0  0  0  0  0  0  0  0  0  0
  -22.3361   -0.5955    0.0000 C   0  0  0  0  0  0  0  0  0  0  0  0
  -22.2499    0.9020    0.0000 C   0  0  0  0  0  0  0  0  0  0  0  0
  -22.1109   -2.5107    0.0000 C   0  0  0  0  0  0  0  0  0  0  0  0
  -21.6797   -3.9474    0.0000 O   0  0  0  0  0  0  0  0  0  0  0  0
  -23.5707   -2.1658    0.0000 N   0  0  0  0  0  0  0  0  0  0  0  0
  -24.5993   -3.2575    0.0000 C   0  0  0  0  0  0  0  0  0  0  0  0
  -25.1925   -4.6353    0.0000 C   0  0  0  0  0  0  0  0  0  0  0  0
  -26.6823   -4.8104    0.0000 C   0  0  0  0  0  0  0  0  0  0  0  0
  -27.2754   -6.1881    0.0000 C   0  0  0  0  0  0  0  0  0  0  0  0
  -28.7652   -6.3633    0.0000 N   0  0  0  0  0  0  0  0  0  0  0  0
  -29.3584   -7.7410    0.0000 C   0  0  0  0  0  0  0  0  0  0  0  0
  -30.8584   -7.7333    0.0000 N   0  0  0  0  0  0  0  0  0  0  0  0
  -28.4618   -8.9436    0.0000 N   0  0  0  0  0  0  0  0  0  0  0  0
  -26.0591   -2.9126    0.0000 C   0  0  0  0  0  0  0  0  0  0  0  0
  -26.4903   -1.4759    0.0000 O   0  0  0  0  0  0  0  0  0  0  0  0
  -27.0878   -4.0044    0.0000 N   0  0  0  0  0  0  0  0  0  0  0  0
  -28.5476   -3.6594    0.0000 C   0  0  0  0  0  0  0  0  0  0  0  0
  -29.8014   -2.8360    0.0000 C   0  0  0  0  0  0  0  0  0  0  0  0
  -29.7152   -1.3385    0.0000 C   0  0  0  0  0  0  0  0  0  0  0  0
  -30.9689   -0.5151    0.0000 C   0  0  0  0  0  0  0  0  0  0  0  0
  -30.8827    0.9824    0.0000 O   0  0  0  0  0  0  0  0  0  0  0  0
  -32.3089   -1.1892    0.0000 O   0  0  0  0  0  0  0  0  0  0  0  0
  -29.5762   -4.7512    0.0000 C   0  0  0  0  0  0  0  0  0  0  0  0
  -29.5055   -6.2495    0.0000 O   0  0  0  0  0  0  0  0  0  0  0  0
  -31.0360   -4.4062    0.0000 N   0  0  0  0  0  0  0  0  0  0  0  0
  -32.0646   -5.4980    0.0000 C   0  0  0  0  0  0  0  0  0  0  0  0
  -32.6578   -6.8757    0.0000 C   0  0  0  0  0  0  0  0  0  0  0  0
  -34.1475   -7.0509    0.0000 C   0  0  0  0  0  0  0  0  0  0  0  0
  -34.7407   -8.4286    0.0000 C   0  0  0  0  0  0  0  0  0  0  0  0
  -36.2305   -8.6038    0.0000 N   0  0  0  0  0  0  0  0  0  0  0  0
  -33.8442   -9.6312    0.0000 O   0  0  0  0  0  0  0  0  0  0  0  0
  -33.5244   -5.1531    0.0000 C   0  0  0  0  0  0  0  0  0  0  0  0
  -34.6784   -6.1113    0.0000 O   0  0  0  0  0  0  0  0  0  0  0  0
  -33.9556   -3.7164    0.0000 O   0  0  0  0  0  0  0  0  0  0  0  0
    5.5364    8.7702    0.0000 H   0  0  0  0  0  0  0  0  0  0  0  0
    2.7026    9.6303    0.0000 H   0  0  0  0  0  0  0  0  0  0  0  0
    0.9560   11.6461    0.0000 H   0  0  0  0  0  0  0  0  0  0  0  0
    6.8228   12.7325    0.0000 H   0  0  0  0  0  0  0  0  0  0  0  0
    6.8276   19.8958    0.0000 H   0  0  0  0  0  0  0  0  0  0  0  0
    1.6345   19.7165    0.0000 H   0  0  0  0  0  0  0  0  0  0  0  0
    1.7381   16.7183    0.0000 H   0  0  0  0  0  0  0  0  0  0  0  0
    2.8551   22.0100    0.0000 H   0  0  0  0  0  0  0  0  0  0  0  0
    4.4900   12.3106    0.0000 H   0  0  0  0  0  0  0  0  0  0  0  0
    7.4995   10.9583    0.0000 H   0  0  0  0  0  0  0  0  0  0  0  0
    9.5795   15.4882    0.0000 H   0  0  0  0  0  0  0  0  0  0  0  0
   10.9554   13.2844    0.0000 H   0  0  0  0  0  0  0  0  0  0  0  0
    8.0335    8.0532    0.0000 H   0  0  0  0  0  0  0  0  0  0  0  0
    9.2935   11.2278    0.0000 H   0  0  0  0  0  0  0  0  0  0  0  0
   11.1470   10.6956    0.0000 H   0  0  0  0  0  0  0  0  0  0  0  0
    9.7008    7.9395    0.0000 H   0  0  0  0  0  0  0  0  0  0  0  0
   11.5543    7.4073    0.0000 H   0  0  0  0  0  0  0  0  0  0  0  0
   13.0278    6.6190    0.0000 H   0  0  0  0  0  0  0  0  0  0  0  0
   15.0015    6.9267    0.0000 H   0  0  0  0  0  0  0  0  0  0  0  0
   14.1838   11.2900    0.0000 H   0  0  0  0  0  0  0  0  0  0  0  0
   15.6884   10.3307    0.0000 H   0  0  0  0  0  0  0  0  0  0  0  0
   12.1865   11.3215    0.0000 H   0  0  0  0  0  0  0  0  0  0  0  0
   16.1166    5.6820    0.0000 H   0  0  0  0  0  0  0  0  0  0  0  0
   18.0765    5.2961    0.0000 H   0  0  0  0  0  0  0  0  0  0  0  0
   18.8004    9.6759    0.0000 H   0  0  0  0  0  0  0  0  0  0  0  0
   19.8862    8.2599    0.0000 H   0  0  0  0  0  0  0  0  0  0  0  0
   15.5467    9.0496    0.0000 H   0  0  0  0  0  0  0  0  0  0  0  0
   16.2879    7.5936    0.0000 H   0  0  0  0  0  0  0  0  0  0  0  0
   18.6986    3.7451    0.0000 H   0  0  0  0  0  0  0  0  0  0  0  0
   20.2670    2.8287    0.0000 H   0  0  0  0  0  0  0  0  0  0  0  0
   22.5865    6.5802    0.0000 H   0  0  0  0  0  0  0  0  0  0  0  0
   23.1715    5.0547    0.0000 H   0  0  0  0  0  0  0  0  0  0  0  0
   19.3149    7.1045    0.0000 H   0  0  0  0  0  0  0  0  0  0  0  0
   19.5133    5.4828    0.0000 H   0  0  0  0  0  0  0  0  0  0  0  0
   20.4624    1.0418    0.0000 H   0  0  0  0  0  0  0  0  0  0  0  0
   21.7157   -0.5136    0.0000 H   0  0  0  0  0  0  0  0  0  0  0  0
   25.1785    2.2184    0.0000 H   0  0  0  0  0  0  0  0  0  0  0  0
   24.8833    0.4585    0.0000 H   0  0  0  0  0  0  0  0  0  0  0  0
   21.8224    2.3961    0.0000 H   0  0  0  0  0  0  0  0  0  0  0  0
   23.8544    5.5990    0.0000 H   0  0  0  0  0  0  0  0  0  0  0  0
   25.3581    4.9600    0.0000 H   0  0  0  0  0  0  0  0  0  0  0  0
   25.2796    3.1773    0.0000 H   0  0  0  0  0  0  0  0  0  0  0  0
   22.6045    5.4296    0.0000 H   0  0  0  0  0  0  0  0  0  0  0  0
   21.0419    4.9526    0.0000 H   0  0  0  0  0  0  0  0  0  0  0  0
   21.4629    2.6762    0.0000 H   0  0  0  0  0  0  0  0  0  0  0  0
   21.1953   -2.1016    0.0000 H   0  0  0  0  0  0  0  0  0  0  0  0
   21.8410   -3.9919    0.0000 H   0  0  0  0  0  0  0  0  0  0  0  0
   25.9960   -2.4289    0.0000 H   0  0  0  0  0  0  0  0  0  0  0  0
   25.1501   -4.1618    0.0000 H   0  0  0  0  0  0  0  0  0  0  0  0
   25.6803   -0.4565    0.0000 H   0  0  0  0  0  0  0  0  0  0  0  0
   23.8268    0.0757    0.0000 H   0  0  0  0  0  0  0  0  0  0  0  0
   22.9415   -1.2498    0.0000 H   0  0  0  0  0  0  0  0  0  0  0  0
   20.8088   -5.3062    0.0000 H   0  0  0  0  0  0  0  0  0  0  0  0
   20.7691   -7.3033    0.0000 H   0  0  0  0  0  0  0  0  0  0  0  0
   24.3031   -5.7178    0.0000 H   0  0  0  0  0  0  0  0  0  0  0  0
   25.2082   -7.2556    0.0000 H   0  0  0  0  0  0  0  0  0  0  0  0
   24.0021   -8.5708    0.0000 H   0  0  0  0  0  0  0  0  0  0  0  0
   19.3497   -8.1853    0.0000 H   0  0  0  0  0  0  0  0  0  0  0  0
   18.6293  -10.0484    0.0000 H   0  0  0  0  0  0  0  0  0  0  0  0
   22.8169  -11.5218    0.0000 H   0  0  0  0  0  0  0  0  0  0  0  0
   21.0550  -12.3055    0.0000 H   0  0  0  0  0  0  0  0  0  0  0  0
   22.7651   -8.2089    0.0000 H   0  0  0  0  0  0  0  0  0  0  0  0
   21.2025   -8.6859    0.0000 H   0  0  0  0  0  0  0  0  0  0  0  0
   16.9938  -10.3917    0.0000 H   0  0  0  0  0  0  0  0  0  0  0  0
   15.8190  -11.7771    0.0000 H   0  0  0  0  0  0  0  0  0  0  0  0
   19.3647  -12.9360    0.0000 H   0  0  0  0  0  0  0  0  0  0  0  0
   19.2776  -14.5899    0.0000 H   0  0  0  0  0  0  0  0  0  0  0  0
   17.5940  -15.0427    0.0000 H   0  0  0  0  0  0  0  0  0  0  0  0
   14.0254  -11.6593    0.0000 H   0  0  0  0  0  0  0  0  0  0  0  0
   12.2760  -12.6235    0.0000 H   0  0  0  0  0  0  0  0  0  0  0  0
   14.5367  -16.4440    0.0000 H   0  0  0  0  0  0  0  0  0  0  0  0
   12.7947  -16.0571    0.0000 H   0  0  0  0  0  0  0  0  0  0  0  0
   15.0016  -12.1545    0.0000 H   0  0  0  0  0  0  0  0  0  0  0  0
   18.6554  -12.5446    0.0000 H   0  0  0  0  0  0  0  0  0  0  0  0
   19.1154  -15.6091    0.0000 H   0  0  0  0  0  0  0  0  0  0  0  0
   10.8024  -11.8352    0.0000 H   0  0  0  0  0  0  0  0  0  0  0  0
    9.0119  -12.1414    0.0000 H   0  0  0  0  0  0  0  0  0  0  0  0
    9.6465  -16.5062    0.0000 H   0  0  0  0  0  0  0  0  0  0  0  0
    8.2178  -15.7136    0.0000 H   0  0  0  0  0  0  0  0  0  0  0  0
   13.1051  -16.8757    0.0000 H   0  0  0  0  0  0  0  0  0  0  0  0
   10.7616  -17.7509    0.0000 H   0  0  0  0  0  0  0  0  0  0  0  0
    7.7137  -10.8982    0.0000 H   0  0  0  0  0  0  0  0  0  0  0  0
    5.7538  -10.5123    0.0000 H   0  0  0  0  0  0  0  0  0  0  0  0
    4.8572  -14.8309    0.0000 H   0  0  0  0  0  0  0  0  0  0  0  0
    3.9521  -13.2930    0.0000 H   0  0  0  0  0  0  0  0  0  0  0  0
    7.5424  -12.8097    0.0000 H   0  0  0  0  0  0  0  0  0  0  0  0
    8.0445  -16.5695    0.0000 H   0  0  0  0  0  0  0  0  0  0  0  0
    6.4819  -17.0466    0.0000 H   0  0  0  0  0  0  0  0  0  0  0  0
    5.3961  -15.6305    0.0000 H   0  0  0  0  0  0  0  0  0  0  0  0
    8.8931  -15.6364    0.0000 H   0  0  0  0  0  0  0  0  0  0  0  0
    9.7835  -14.2665    0.0000 H   0  0  0  0  0  0  0  0  0  0  0  0
    7.9978  -12.7933    0.0000 H   0  0  0  0  0  0  0  0  0  0  0  0
    5.1317   -8.9612    0.0000 H   0  0  0  0  0  0  0  0  0  0  0  0
    3.4220   -7.9283    0.0000 H   0  0  0  0  0  0  0  0  0  0  0  0
    1.2437  -11.7964    0.0000 H   0  0  0  0  0  0  0  0  0  0  0  0
    0.7779   -9.9251    0.0000 H   0  0  0  0  0  0  0  0  0  0  0  0
    2.7534  -13.1044    0.0000 H   0  0  0  0  0  0  0  0  0  0  0  0
    3.3679   -6.2580    0.0000 H   0  0  0  0  0  0  0  0  0  0  0  0
    2.1146   -4.7026    0.0000 H   0  0  0  0  0  0  0  0  0  0  0  0
   -1.0530   -5.6747    0.0000 H   0  0  0  0  0  0  0  0  0  0  0  0
   -1.3344   -9.0904    0.0000 H   0  0  0  0  0  0  0  0  0  0  0  0
   -0.1386   -9.4159    0.0000 H   0  0  0  0  0  0  0  0  0  0  0  0
    1.6397   -9.2041    0.0000 H   0  0  0  0  0  0  0  0  0  0  0  0
    2.0183   -7.6557    0.0000 H   0  0  0  0  0  0  0  0  0  0  0  0
    2.6047   -3.2952    0.0000 H   0  0  0  0  0  0  0  0  0  0  0  0
    0.9093   -3.4294    0.0000 H   0  0  0  0  0  0  0  0  0  0  0  0
   -0.2651   -4.2330    0.0000 H   0  0  0  0  0  0  0  0  0  0  0  0
   -0.5254   -4.7587    0.0000 H   0  0  0  0  0  0  0  0  0  0  0  0
   -1.5257   -5.1931    0.0000 H   0  0  0  0  0  0  0  0  0  0  0  0
   -1.6731   -5.2733    0.0000 H   0  0  0  0  0  0  0  0  0  0  0  0
   -2.9459   -5.9098    0.0000 H   0  0  0  0  0  0  0  0  0  0  0  0
   -3.4276   -6.0627    0.0000 H   0  0  0  0  0  0  0  0  0  0  0  0
   -4.6585   -6.3280    0.0000 H   0  0  0  0  0  0  0  0  0  0  0  0
   -5.1604   -6.3870    0.0000 H   0  0  0  0  0  0  0  0  0  0  0  0
   -6.4192   -6.4145    0.0000 H   0  0  0  0  0  0  0  0  0  0  0  0
   -6.9233   -6.3774    0.0000 H   0  0  0  0  0  0  0  0  0  0  0  0
   -8.3090   -6.0535    0.0000 H   0  0  0  0  0  0  0  0  0  0  0  0
   -9.2906   -5.9429    0.0000 H   0  0  0  0  0  0  0  0  0  0  0  0
    2.8845   -2.8835    0.0000 H   0  0  0  0  0  0  0  0  0  0  0  0
    3.5067   -1.3728    0.0000 H   0  0  0  0  0  0  0  0  0  0  0  0
    2.1993   -0.1584    0.0000 H   0  0  0  0  0  0  0  0  0  0  0  0
    3.1296    0.6584    0.0000 H   0  0  0  0  0  0  0  0  0  0  0  0
    3.0397    1.6753    0.0000 H   0  0  0  0  0  0  0  0  0  0  0  0
    4.1475    4.5579    0.0000 H   0  0  0  0  0  0  0  0  0  0  0  0
    2.5247    4.7474    0.0000 H   0  0  0  0  0  0  0  0  0  0  0  0
    3.8443    1.3087    0.0000 H   0  0  0  0  0  0  0  0  0  0  0  0
    7.1725    2.8408    0.0000 H   0  0  0  0  0  0  0  0  0  0  0  0
    6.7456    4.5734    0.0000 H   0  0  0  0  0  0  0  0  0  0  0  0
    4.9638    4.6717    0.0000 H   0  0  0  0  0  0  0  0  0  0  0  0
    6.9622    1.6050    0.0000 H   0  0  0  0  0  0  0  0  0  0  0  0
    5.9862    0.1111    0.0000 H   0  0  0  0  0  0  0  0  0  0  0  0
    4.1702    0.7598    0.0000 H   0  0  0  0  0  0  0  0  0  0  0  0
    2.8658    5.9375    0.0000 H   0  0  0  0  0  0  0  0  0  0  0  0
    2.2404    6.7444    0.0000 H   0  0  0  0  0  0  0  0  0  0  0  0
    1.7940    9.7351    0.0000 H   0  0  0  0  0  0  0  0  0  0  0  0
    0.1462    9.0503    0.0000 H   0  0  0  0  0  0  0  0  0  0  0  0
    4.3657    7.9227    0.0000 H   0  0  0  0  0  0  0  0  0  0  0  0
    3.1154    6.8710    0.0000 H   0  0  0  0  0  0  0  0  0  0  0  0
   -0.3498   10.3547    0.0000 H   0  0  0  0  0  0  0  0  0  0  0  0
   -1.2605   10.7373    0.0000 H   0  0  0  0  0  0  0  0  0  0  0  0
   -3.1651   12.8512    0.0000 H   0  0  0  0  0  0  0  0  0  0  0  0
   -4.1811   11.3843    0.0000 H   0  0  0  0  0  0  0  0  0  0  0  0
   -0.4000   14.6783    0.0000 H   0  0  0  0  0  0  0  0  0  0  0  0
   -2.9848   14.4159    0.0000 H   0  0  0  0  0  0  0  0  0  0  0  0
   -5.3035   12.2135    0.0000 H   0  0  0  0  0  0  0  0  0  0  0  0
   -6.2765   12.0430    0.0000 H   0  0  0  0  0  0  0  0  0  0  0  0
   -7.2982   13.2541    0.0000 H   0  0  0  0  0  0  0  0  0  0  0  0
   -9.0216   12.7916    0.0000 H   0  0  0  0  0  0  0  0  0  0  0  0
   -9.0832   11.0082    0.0000 H   0  0  0  0  0  0  0  0  0  0  0  0
  -10.3098   11.1764    0.0000 H   0  0  0  0  0  0  0  0  0  0  0  0
  -11.0194   10.4426    0.0000 H   0  0  0  0  0  0  0  0  0  0  0  0
  -13.0039    8.0416    0.0000 H   0  0  0  0  0  0  0  0  0  0  0  0
  -14.0691   11.5700    0.0000 H   0  0  0  0  0  0  0  0  0  0  0  0
  -12.4883   12.3786    0.0000 H   0  0  0  0  0  0  0  0  0  0  0  0
  -11.2693   11.2907    0.0000 H   0  0  0  0  0  0  0  0  0  0  0  0
  -15.3214    8.8484    0.0000 H   0  0  0  0  0  0  0  0  0  0  0  0
  -13.8123    7.8962    0.0000 H   0  0  0  0  0  0  0  0  0  0  0  0
  -16.2012   10.6417    0.0000 H   0  0  0  0  0  0  0  0  0  0  0  0
  -14.9942   12.1456    0.0000 H   0  0  0  0  0  0  0  0  0  0  0  0
  -13.4767   11.5403    0.0000 H   0  0  0  0  0  0  0  0  0  0  0  0
  -14.2244    7.3650    0.0000 H   0  0  0  0  0  0  0  0  0  0  0  0
  -14.3269    6.5190    0.0000 H   0  0  0  0  0  0  0  0  0  0  0  0
  -16.2949    4.2231    0.0000 H   0  0  0  0  0  0  0  0  0  0  0  0
  -14.6982    3.4262    0.0000 H   0  0  0  0  0  0  0  0  0  0  0  0
  -16.6092    7.3535    0.0000 H   0  0  0  0  0  0  0  0  0  0  0  0
  -14.9956    7.0973    0.0000 H   0  0  0  0  0  0  0  0  0  0  0  0
  -19.9524    6.3377    0.0000 H   0  0  0  0  0  0  0  0  0  0  0  0
  -18.0828    8.1417    0.0000 H   0  0  0  0  0  0  0  0  0  0  0  0
  -15.3608    2.3804    0.0000 H   0  0  0  0  0  0  0  0  0  0  0  0
  -13.8990   -1.8516    0.0000 H   0  0  0  0  0  0  0  0  0  0  0  0
  -14.5811   -0.7932    0.0000 H   0  0  0  0  0  0  0  0  0  0  0  0
  -13.0326   -3.1858    0.0000 H   0  0  0  0  0  0  0  0  0  0  0  0
  -13.7366   -2.3529    0.0000 H   0  0  0  0  0  0  0  0  0  0  0  0
  -11.5857   -4.4537    0.0000 H   0  0  0  0  0  0  0  0  0  0  0  0
  -12.6934   -3.5604    0.0000 H   0  0  0  0  0  0  0  0  0  0  0  0
  -10.8948   -5.1597    0.0000 H   0  0  0  0  0  0  0  0  0  0  0  0
  -16.3631    0.5296    0.0000 H   0  0  0  0  0  0  0  0  0  0  0  0
  -16.2511    2.1596    0.0000 H   0  0  0  0  0  0  0  0  0  0  0  0
  -14.7164    2.7203    0.0000 H   0  0  0  0  0  0  0  0  0  0  0  0
  -16.7085    1.4481    0.0000 H   0  0  0  0  0  0  0  0  0  0  0  0
  -15.8803   -1.8405    0.0000 H   0  0  0  0  0  0  0  0  0  0  0  0
  -16.2675   -2.7397    0.0000 H   0  0  0  0  0  0  0  0  0  0  0  0
  -16.5597   -4.7157    0.0000 H   0  0  0  0  0  0  0  0  0  0  0  0
  -19.8102   -3.9477    0.0000 H   0  0  0  0  0  0  0  0  0  0  0  0
  -20.6768   -2.2250    0.0000 H   0  0  0  0  0  0  0  0  0  0  0  0
  -19.8441   -1.2073    0.0000 H   0  0  0  0  0  0  0  0  0  0  0  0
  -19.3697   -3.2424    0.0000 H   0  0  0  0  0  0  0  0  0  0  0  0
  -20.3256   -0.1238    0.0000 H   0  0  0  0  0  0  0  0  0  0  0  0
  -23.7430   -0.0752    0.0000 H   0  0  0  0  0  0  0  0  0  0  0  0
  -23.2450   -1.7888    0.0000 H   0  0  0  0  0  0  0  0  0  0  0  0
  -23.5037    1.7254    0.0000 H   0  0  0  0  0  0  0  0  0  0  0  0
  -21.6567    2.2797    0.0000 H   0  0  0  0  0  0  0  0  0  0  0  0
  -20.7589    0.7376    0.0000 H   0  0  0  0  0  0  0  0  0  0  0  0
  -24.1738   -0.7924    0.0000 H   0  0  0  0  0  0  0  0  0  0  0  0
  -23.3455   -4.0809    0.0000 H   0  0  0  0  0  0  0  0  0  0  0  0
  -25.0955   -6.1321    0.0000 H   0  0  0  0  0  0  0  0  0  0  0  0
  -23.7327   -4.9802    0.0000 H   0  0  0  0  0  0  0  0  0  0  0  0
  -28.1421   -4.4655    0.0000 H   0  0  0  0  0  0  0  0  0  0  0  0
  -27.3093   -3.4478    0.0000 H   0  0  0  0  0  0  0  0  0  0  0  0
  -27.3617   -7.6857    0.0000 H   0  0  0  0  0  0  0  0  0  0  0  0
  -25.8686   -6.7084    0.0000 H   0  0  0  0  0  0  0  0  0  0  0  0
  -29.9261   -5.4134    0.0000 H   0  0  0  0  0  0  0  0  0  0  0  0
  -31.4413   -9.2939    0.0000 H   0  0  0  0  0  0  0  0  0  0  0  0
  -31.6138   -6.6132    0.0000 H   0  0  0  0  0  0  0  0  0  0  0  0
  -29.0550  -10.3213    0.0000 H   0  0  0  0  0  0  0  0  0  0  0  0
  -26.9721   -8.7684    0.0000 H   0  0  0  0  0  0  0  0  0  0  0  0
  -27.0170   -5.5027    0.0000 H   0  0  0  0  0  0  0  0  0  0  0  0
  -27.7909   -2.3643    0.0000 H   0  0  0  0  0  0  0  0  0  0  0  0
  -31.2082   -2.3157    0.0000 H   0  0  0  0  0  0  0  0  0  0  0  0
  -30.7103   -4.0293    0.0000 H   0  0  0  0  0  0  0  0  0  0  0  0
  -29.1220    0.0392    0.0000 H   0  0  0  0  0  0  0  0  0  0  0  0
  -28.2242   -1.5029    0.0000 H   0  0  0  0  0  0  0  0  0  0  0  0
  -31.6391   -3.0328    0.0000 H   0  0  0  0  0  0  0  0  0  0  0  0
  -30.8108   -6.3214    0.0000 H   0  0  0  0  0  0  0  0  0  0  0  0
  -32.7440   -8.3733    0.0000 H   0  0  0  0  0  0  0  0  0  0  0  0
  -31.1579   -6.8572    0.0000 H   0  0  0  0  0  0  0  0  0  0  0  0
  -35.6073   -6.7060    0.0000 H   0  0  0  0  0  0  0  0  0  0  0  0
  -34.6038   -5.6220    0.0000 H   0  0  0  0  0  0  0  0  0  0  0  0
  -36.8236   -9.9815    0.0000 H   0  0  0  0  0  0  0  0  0  0  0  0
  -37.1270   -7.4012    0.0000 H   0  0  0  0  0  0  0  0  0  0  0  0
  1  2  1  0
  2  3  1  0
  3  4  2  0
  4  5  1  0
  5  6  2  0
  6  7  1  0
  7  8  2  0
  7  9  1  0
  9 10  1  0
 10 11  1  0
 11 12  2  0
  9 13  1  0
 13 14  1  0
 14 15  2  0
 15 16  1  0
 16 17  2  0
 17 18  1  0
 16 19  1  0
 14 20  1  0
 20 21  1  0
 21 22  2  0
 22 23  1  0
 23 24  2  0
 24 25  1  0
 25 26  2  0
 25 27  1  0
  1 28  2  0
  1 29  1  0
 29 30  1  0
 30 31  1  0
 31 32  1  0
 32 33  2  0
 32 34  1  0
 34 35  1  0
 35 36  1  0
 36 37  1  0
 35 38  1  0
 38 39  2  0
 38 40  1  0
 40 41  1  0
 41 42  1  0
 42 43  1  0
 43 44  1  0
 44 45  2  0
 44 46  1  0
 41 47  1  0
 47 48  2  0
 47 49  1  0
 49 50  1  0
 50 51  1  0
 51 52  1  0
 52 53  1  0
 53 54  2  0
 53 55  1  0
 50 56  1  0
 56 57  2  0
 56 58  1  0
 58 59  1  0
 59 60  1  0
 60 61  1  0
 61 62  1  0
 61 63  1  0
 59 64  1  0
 64 65  2  0
 64 66  1  0
 66 67  1  0
 67 68  1  0
 68 69  1  0
 67 70  1  0
 70 71  2  0
 70 72  1  0
 72 73  1  0
 73 74  1  0
 73 75  1  0
 75 76  2  0
 75 77  1  0
 77 78  1  0
 78 79  1  0
 79 80  1  0
 80 81  1  0
 81 82  2  0
 81 83  1  0
 78 84  1  0
 84 85  2  0
 84 86  1  0
 86 87  1  0
 87 88  1  0
 87 89  1  0
 89 90  2  0
 89 91  1  0
 91 92  1  0
 92 93  1  0
 93 94  1  0
 94 95  2  0
 95 96  1  0
 96 97  1  0
 97 98  2  0
 92 99  1  0
 99100  2  0
 99101  1  0
101102  1  0
102103  1  0
103104  1  0
104105  1  0
104106  2  0
102107  1  0
107108  2  0
107109  1  0
109110  1  0
110111  1  0
111112  1  0
112113  1  0
112114  1  0
110115  1  0
115116  2  0
115117  1  0
117118  1  0
118119  1  0
119120  1  0
118121  1  0
121122  2  0
121123  1  0
123124  1  0
124125  1  0
125126  1  0
125127  1  0
124128  1  0
128129  2  0
128130  1  0
131130  1  6
131132  1  0
132133  1  0
133134  1  0
134135  1  0
135136  1  0
136137  1  0
137138  1  0
131139  1  0
131140  1  0
140141  2  0
140142  1  0
142143  1  0
143144  1  0
144145  1  0
145146  1  0
145147  1  0
143148  1  0
148149  2  0
148150  1  0
150151  1  0
151152  1  0
152153  1  0
153154  1  0
154155  2  0
154156  1  0
151157  1  0
157158  2  0
157159  1  0
159160  1  0
160161  1  0
161162  1  0
162163  1  0
162164  2  0
160165  1  0
165166  2  0
165167  1  0
167168  1  0
168169  1  0
168170  1  0
170171  2  0
170172  1  0
172173  1  0
173174  1  0
174175  1  0
174176  1  0
176177  1  0
173178  1  0
178179  2  0
178180  1  0
180181  1  0
181182  1  0
182183  1  0
183184  1  0
184185  1  0
184186  2  0
181187  1  0
187188  2  0
187189  1  0
189190  1  0
190191  1  0
191192  1  0
192193  1  0
193194  1  0
190195  1  0
190196  1  1
196197  2  0
196198  1  0
198199  1  0
199200  1  0
200201  1  0
200202  1  0
199203  1  0
203204  2  0
203205  1  0
205206  1  0
206207  1  0
207208  1  0
206209  1  0
209210  2  0
209211  1  0
211212  1  0
212213  1  0
213214  1  0
214215  1  0
215216  1  0
216217  1  0
217218  2  3
217219  1  0
212220  1  0
220221  2  0
220222  1  0
222223  1  0
223224  1  0
224225  1  0
225226  1  0
226227  2  0
226228  1  0
223229  1  0
229230  2  0
229231  1  0
231232  1  0
232233  1  0
233234  1  0
234235  1  0
235236  1  0
235237  2  0
232238  1  0
238239  2  0
238240  1  0
  8  3  1  0
 98 94  1  0
 11  6  1  0
 18 13  2  0
138194  2  0
 22  9  1  0
 26 21  1  0
  2241  1  0
  4242  1  0
  5243  1  0
  8244  1  0
 15245  1  0
 17246  1  0
 18247  1  0
 19248  1  0
 23249  1  0
 24250  1  0
 26251  1  0
 27252  1  0
 29253  1  0
 30254  1  0
 30255  1  0
 31256  1  0
 31257  1  0
 34258  1  0
 35259  1  1
 36260  1  0
 36261  1  0
 37262  1  0
 40263  1  0
 41264  1  1
 42265  1  0
 42266  1  0
 43267  1  0
 43268  1  0
 49269  1  0
 50270  1  1
 51271  1  0
 51272  1  0
 52273  1  0
 52274  1  0
 58275  1  0
 59276  1  1
 60277  1  0
 60278  1  0
 61279  1  0
 62280  1  0
 62281  1  0
 62282  1  0
 63283  1  0
 63284  1  0
 63285  1  0
 66286  1  0
 67287  1  1
 68288  1  0
 68289  1  0
 69290  1  0
 69291  1  0
 69292  1  0
 72293  1  0
 73294  1  1
 74295  1  0
 74296  1  0
 74297  1  0
 77298  1  0
 78299  1  1
 79300  1  0
 79301  1  0
 80302  1  0
 80303  1  0
 86304  1  0
 87305  1  1
 88306  1  0
 88307  1  0
 88308  1  0
 91309  1  0
 92310  1  1
 93311  1  0
 93312  1  0
 95313  1  0
 96314  1  0
 97315  1  0
101316  1  0
102317  1  1
103318  1  0
103319  1  0
105320  1  0
105321  1  0
109322  1  0
110323  1  1
111324  1  0
111325  1  0
112326  1  0
113327  1  0
113328  1  0
113329  1  0
114330  1  0
114331  1  0
114332  1  0
117333  1  0
118334  1  1
119335  1  0
119336  1  0
120337  1  0
123338  1  0
124339  1  1
125340  1  6
126341  1  0
127342  1  0
127343  1  0
127344  1  0
130345  1  0
132346  1  0
132347  1  0
133348  1  0
133349  1  0
134350  1  0
134351  1  0
135352  1  0
135353  1  0
136354  1  0
136355  1  0
137356  1  0
137357  1  0
138358  1  0
139359  1  0
139360  1  0
139361  1  0
142362  1  0
143363  1  6
144364  1  0
144365  1  0
145366  1  0
146367  1  0
146368  1  0
146369  1  0
147370  1  0
147371  1  0
147372  1  0
150373  1  0
151374  1  6
152375  1  0
152376  1  0
153377  1  0
153378  1  0
159379  1  0
160380  1  6
161381  1  0
161382  1  0
163383  1  0
163384  1  0
167385  1  0
168386  1  6
169387  1  0
169388  1  0
169389  1  0
172390  1  0
173391  1  6
174392  1  1
175393  1  0
175394  1  0
175395  1  0
176396  1  0
176397  1  0
177398  1  0
177399  1  0
177400  1  0
180401  1  0
181402  1  6
182403  1  0
182404  1  0
183405  1  0
183406  1  0
185407  1  0
185408  1  0
189409  1  0
191410  1  0
191411  1  0
192412  1  0
192413  1  0
193414  1  0
193415  1  0
194416  1  0
195417  1  0
195418  1  0
195419  1  0
198420  1  0
199421  1  1
200422  1  1
201423  1  0
202424  1  0
202425  1  0
202426  1  0
205427  1  0
206428  1  6
207429  1  0
207430  1  0
208431  1  0
208432  1  0
208433  1  0
211434  1  0
212435  1  1
213436  1  0
213437  1  0
214438  1  0
214439  1  0
215440  1  0
215441  1  0
216442  1  0
218443  1  0
218444  1  0
219445  1  0
219446  1  0
222447  1  0
223448  1  6
224449  1  0
224450  1  0
225451  1  0
225452  1  0
231453  1  0
232454  1  1
233455  1  0
233456  1  0
234457  1  0
234458  1  0
236459  1  0
236460  1  0
M  CHG  7  46  -1  55  -1  83  -1 156  -1 218   1 228  -1 240  -1
M  END
