
     RDKit          2D

302309  0  0  0  0  0  0  0  0999 V2000
   20.0470   -2.7265    0.0000 C   0  0  0  0  0  0  0  0  0  0  0  0
   21.3705   -2.0206    0.0000 N   0  0  0  0  0  0  0  0  0  0  0  0
   22.6436   -2.8138    0.0000 C   0  0  0  0  0  0  0  0  0  0  0  0
   22.5932   -4.3130    0.0000 C   0  0  0  0  0  0  0  0  0  0  0  0
   23.8663   -5.1062    0.0000 C   0  0  0  0  0  0  0  0  0  0  0  0
   25.1898   -4.4003    0.0000 C   0  0  0  0  0  0  0  0  0  0  0  0
   25.2402   -2.9012    0.0000 C   0  0  0  0  0  0  0  0  0  0  0  0
   23.9672   -2.1079    0.0000 C   0  0  0  0  0  0  0  0  0  0  0  0
   26.6816   -2.4858    0.0000 C   0  0  0  0  0  0  0  0  0  0  0  0
   27.5220   -3.7283    0.0000 O   0  0  0  0  0  0  0  0  0  0  0  0
   26.6000   -4.9115    0.0000 C   0  0  0  0  0  0  0  0  0  0  0  0
   27.0153   -6.3529    0.0000 O   0  0  0  0  0  0  0  0  0  0  0  0
   28.1585   -2.2235    0.0000 C   0  0  0  0  0  0  0  0  0  0  0  0
   28.6697   -0.8133    0.0000 C   0  0  0  0  0  0  0  0  0  0  0  0
   30.1466   -0.5509    0.0000 C   0  0  0  0  0  0  0  0  0  0  0  0
   31.1122   -1.6987    0.0000 C   0  0  0  0  0  0  0  0  0  0  0  0
   30.6010   -3.1089    0.0000 C   0  0  0  0  0  0  0  0  0  0  0  0
   29.1241   -3.3713    0.0000 C   0  0  0  0  0  0  0  0  0  0  0  0
   32.5891   -1.4364    0.0000 O   0  0  0  0  0  0  0  0  0  0  0  0
   27.7040    0.3345    0.0000 O   0  0  0  0  0  0  0  0  0  0  0  0
   26.2272    0.0722    0.0000 C   0  0  0  0  0  0  0  0  0  0  0  0
   25.7159   -1.3380    0.0000 C   0  0  0  0  0  0  0  0  0  0  0  0
   24.4776   -0.9423    0.0000 C   0  0  0  0  0  0  0  0  0  0  0  0
   23.9626   -0.3301    0.0000 C   0  0  0  0  0  0  0  0  0  0  0  0
   24.2353    0.4220    0.0000 C   0  0  0  0  0  0  0  0  0  0  0  0
   25.0229    0.5619    0.0000 C   0  0  0  0  0  0  0  0  0  0  0  0
   22.8190    2.1055    0.0000 O   0  0  0  0  0  0  0  0  0  0  0  0
   19.9966   -4.2256    0.0000 S   0  0  0  0  0  0  0  0  0  0  0  0
   18.7739   -1.9332    0.0000 N   0  0  0  0  0  0  0  0  0  0  0  0
   17.4504   -2.6392    0.0000 C   0  0  0  0  0  0  0  0  0  0  0  0
   16.1773   -1.8459    0.0000 C   0  0  0  0  0  0  0  0  0  0  0  0
   14.8538   -2.5518    0.0000 C   0  0  0  0  0  0  0  0  0  0  0  0
   15.0206   -3.3313    0.0000 O   0  0  0  0  0  0  0  0  0  0  0  0
   13.5807   -1.7586    0.0000 N   0  0  0  0  0  0  0  0  0  0  0  0
   12.2572   -2.4645    0.0000 C   0  0  0  0  0  0  0  0  0  0  0  0
   13.1822   -3.6453    0.0000 C   0  0  0  0  0  0  0  0  0  0  0  0
   14.6674   -3.4347    0.0000 C   0  0  0  0  0  0  0  0  0  0  0  0
   15.5924   -4.6155    0.0000 N   0  0  0  0  0  0  0  0  0  0  0  0
   15.5475   -2.2200    0.0000 O   0  0  0  0  0  0  0  0  0  0  0  0
   10.7721   -2.6752    0.0000 C   0  0  0  0  0  0  0  0  0  0  0  0
   10.5653   -4.1608    0.0000 O   0  0  0  0  0  0  0  0  0  0  0  0
    9.8471   -1.4943    0.0000 N   0  0  0  0  0  0  0  0  0  0  0  0
    8.3619   -1.7050    0.0000 C   0  0  0  0  0  0  0  0  0  0  0  0
    8.8273   -3.1310    0.0000 C   0  0  0  0  0  0  0  0  0  0  0  0
   10.2949   -3.4410    0.0000 C   0  0  0  0  0  0  0  0  0  0  0  0
   10.7603   -4.8670    0.0000 C   0  0  0  0  0  0  0  0  0  0  0  0
   12.1792   -5.3535    0.0000 N   0  0  0  0  0  0  0  0  0  0  0  0
    9.9015   -6.0968    0.0000 O   0  0  0  0  0  0  0  0  0  0  0  0
    6.8943   -1.3950    0.0000 C   0  0  0  0  0  0  0  0  0  0  0  0
    6.1919   -2.7204    0.0000 O   0  0  0  0  0  0  0  0  0  0  0  0
    6.4290    0.0310    0.0000 N   0  0  0  0  0  0  0  0  0  0  0  0
    4.9613    0.3409    0.0000 C   0  0  0  0  0  0  0  0  0  0  0  0
    4.9109   -1.1582    0.0000 C   0  0  0  0  0  0  0  0  0  0  0  0
    6.1840   -1.9515    0.0000 C   0  0  0  0  0  0  0  0  0  0  0  0
    6.1336   -3.4506    0.0000 C   0  0  0  0  0  0  0  0  0  0  0  0
    7.4067   -4.2438    0.0000 N   0  0  0  0  0  0  0  0  0  0  0  0
    7.3563   -5.7430    0.0000 C   0  0  0  0  0  0  0  0  0  0  0  0
    8.6293   -6.5362    0.0000 N   0  0  0  0  0  0  0  0  0  0  0  0
    6.0327   -6.4489    0.0000 N   0  0  0  0  0  0  0  0  0  0  0  0
    3.6882    1.1342    0.0000 C   0  0  0  0  0  0  0  0  0  0  0  0
    2.5749    0.1290    0.0000 O   0  0  0  0  0  0  0  0  0  0  0  0
    3.7387    2.6333    0.0000 N   0  0  0  0  0  0  0  0  0  0  0  0
    2.4656    3.4266    0.0000 C   0  0  0  0  0  0  0  0  0  0  0  0
    2.3202    1.9336    0.0000 C   0  0  0  0  0  0  0  0  0  0  0  0
    1.8948    0.4952    0.0000 C   0  0  0  0  0  0  0  0  0  0  0  0
    1.2050   -0.8367    0.0000 C   0  0  0  0  0  0  0  0  0  0  0  0
    0.2755   -2.0141    0.0000 C   0  0  0  0  0  0  0  0  0  0  0  0
   -0.8599   -2.9942    0.0000 C   0  0  0  0  0  0  0  0  0  0  0  0
   -2.1604   -3.7418    0.0000 C   0  0  0  0  0  0  0  0  0  0  0  0
   -3.5788   -4.2297    0.0000 C   0  0  0  0  0  0  0  0  0  0  0  0
    3.7416    4.2150    0.0000 C   0  0  0  0  0  0  0  0  0  0  0  0
    2.3258    4.9201    0.0000 C   0  0  0  0  0  0  0  0  0  0  0  0
    3.7540    5.3787    0.0000 O   0  0  0  0  0  0  0  0  0  0  0  0
    1.9059    6.3601    0.0000 N   0  0  0  0  0  0  0  0  0  0  0  0
    1.2211    7.6946    0.0000 C   0  0  0  0  0  0  0  0  0  0  0  0
    1.8683    9.0478    0.0000 C   0  0  0  0  0  0  0  0  0  0  0  0
    3.3638    9.1639    0.0000 C   0  0  0  0  0  0  0  0  0  0  0  0
    4.0111   10.5170    0.0000 C   0  0  0  0  0  0  0  0  0  0  0  0
    4.8089    8.7614    0.0000 C   0  0  0  0  0  0  0  0  0  0  0  0
    0.2961    8.8755    0.0000 C   0  0  0  0  0  0  0  0  0  0  0  0
    1.2496   10.0334    0.0000 O   0  0  0  0  0  0  0  0  0  0  0  0
   -0.8357    9.8599    0.0000 N   0  0  0  0  0  0  0  0  0  0  0  0
   -2.1333   10.6123    0.0000 C   0  0  0  0  0  0  0  0  0  0  0  0
   -2.3204   12.1006    0.0000 C   0  0  0  0  0  0  0  0  0  0  0  0
   -1.1250   13.0068    0.0000 O   0  0  0  0  0  0  0  0  0  0  0  0
   -3.5499   11.1056    0.0000 C   0  0  0  0  0  0  0  0  0  0  0  0
   -3.3738   12.5952    0.0000 O   0  0  0  0  0  0  0  0  0  0  0  0
   -5.0342   11.3219    0.0000 N   0  0  0  0  0  0  0  0  0  0  0  0
   -6.5326   11.2534    0.0000 C   0  0  0  0  0  0  0  0  0  0  0  0
   -7.4946   12.4042    0.0000 C   0  0  0  0  0  0  0  0  0  0  0  0
   -6.9790   13.8128    0.0000 C   0  0  0  0  0  0  0  0  0  0  0  0
   -5.5013   14.0705    0.0000 C   0  0  0  0  0  0  0  0  0  0  0  0
   -4.9856   15.4791    0.0000 C   0  0  0  0  0  0  0  0  0  0  0  0
   -5.9476   16.6299    0.0000 C   0  0  0  0  0  0  0  0  0  0  0  0
   -7.4253   16.3723    0.0000 C   0  0  0  0  0  0  0  0  0  0  0  0
   -7.9410   14.9637    0.0000 C   0  0  0  0  0  0  0  0  0  0  0  0
   -7.9910   10.9025    0.0000 C   0  0  0  0  0  0  0  0  0  0  0  0
   -8.6482   12.2508    0.0000 O   0  0  0  0  0  0  0  0  0  0  0  0
   -9.3566   10.2819    0.0000 N   0  0  0  0  0  0  0  0  0  0  0  0
  -10.5801    9.4141    0.0000 C   0  0  0  0  0  0  0  0  0  0  0  0
  -12.0117    9.8622    0.0000 C   0  0  0  0  0  0  0  0  0  0  0  0
  -12.3394   11.3260    0.0000 C   0  0  0  0  0  0  0  0  0  0  0  0
  -11.2356   12.3417    0.0000 C   0  0  0  0  0  0  0  0  0  0  0  0
  -11.5633   13.8054    0.0000 C   0  0  0  0  0  0  0  0  0  0  0  0
  -12.9948   14.2535    0.0000 C   0  0  0  0  0  0  0  0  0  0  0  0
  -14.0986   13.2378    0.0000 C   0  0  0  0  0  0  0  0  0  0  0  0
  -13.7709   11.7741    0.0000 C   0  0  0  0  0  0  0  0  0  0  0  0
  -11.6173    8.3305    0.0000 C   0  0  0  0  0  0  0  0  0  0  0  0
  -12.8992    9.1095    0.0000 O   0  0  0  0  0  0  0  0  0  0  0  0
  -12.4307    7.0701    0.0000 N   0  0  0  0  0  0  0  0  0  0  0  0
  -12.9908    5.6787    0.0000 C   0  0  0  0  0  0  0  0  0  0  0  0
  -14.4373    5.2817    0.0000 C   0  0  0  0  0  0  0  0  0  0  0  0
  -13.2774    4.2063    0.0000 C   0  0  0  0  0  0  0  0  0  0  0  0
  -14.7770    4.1686    0.0000 O   0  0  0  0  0  0  0  0  0  0  0  0
  -13.2803    2.7063    0.0000 N   0  0  0  0  0  0  0  0  0  0  0  0
  -12.9992    1.2329    0.0000 C   0  0  0  0  0  0  0  0  0  0  0  0
  -14.0014    0.1169    0.0000 C   0  0  0  0  0  0  0  0  0  0  0  0
  -15.4690    0.4268    0.0000 C   0  0  0  0  0  0  0  0  0  0  0  0
  -16.4713   -0.6892    0.0000 C   0  0  0  0  0  0  0  0  0  0  0  0
  -16.7421    1.2201    0.0000 C   0  0  0  0  0  0  0  0  0  0  0  0
  -12.4443   -0.1607    0.0000 C   0  0  0  0  0  0  0  0  0  0  0  0
  -13.6854   -1.0031    0.0000 O   0  0  0  0  0  0  0  0  0  0  0  0
  -11.6357   -1.4241    0.0000 N   0  0  0  0  0  0  0  0  0  0  0  0
  -10.6027   -2.5117    0.0000 C   0  0  0  0  0  0  0  0  0  0  0  0
   -9.3824   -3.3841    0.0000 C   0  0  0  0  0  0  0  0  0  0  0  0
   -8.0192   -4.0098    0.0000 C   0  0  0  0  0  0  0  0  0  0  0  0
   -6.5621   -4.3662    0.0000 C   0  0  0  0  0  0  0  0  0  0  0  0
   -5.0640   -4.4404    0.0000 C   0  0  0  0  0  0  0  0  0  0  0  0
  -12.0358   -2.9544    0.0000 C   0  0  0  0  0  0  0  0  0  0  0  0
  -10.8425   -3.9924    0.0000 C   0  0  0  0  0  0  0  0  0  0  0  0
   -9.9440   -5.1935    0.0000 O   0  0  0  0  0  0  0  0  0  0  0  0
  -12.2447   -4.5251    0.0000 N   0  0  0  0  0  0  0  0  0  0  0  0
  -12.4845   -6.0058    0.0000 C   0  0  0  0  0  0  0  0  0  0  0  0
  -12.2034   -7.4792    0.0000 C   0  0  0  0  0  0  0  0  0  0  0  0
  -13.3389   -8.4594    0.0000 C   0  0  0  0  0  0  0  0  0  0  0  0
  -13.0578   -9.9328    0.0000 O   0  0  0  0  0  0  0  0  0  0  0  0
  -14.8327   -8.3235    0.0000 O   0  0  0  0  0  0  0  0  0  0  0  0
  -13.8867   -6.5385    0.0000 C   0  0  0  0  0  0  0  0  0  0  0  0
  -15.0491   -5.5905    0.0000 O   0  0  0  0  0  0  0  0  0  0  0  0
  -14.1265   -8.0192    0.0000 N   0  0  0  0  0  0  0  0  0  0  0  0
  -15.5287   -8.5519    0.0000 C   0  0  0  0  0  0  0  0  0  0  0  0
  -17.0286   -8.5728    0.0000 C   0  0  0  0  0  0  0  0  0  0  0  0
  -17.7604   -9.8822    0.0000 C   0  0  0  0  0  0  0  0  0  0  0  0
  -19.2602   -9.9032    0.0000 C   0  0  0  0  0  0  0  0  0  0  0  0
  -20.1461  -11.1136    0.0000 N   0  0  0  0  0  0  0  0  0  0  0  0
  -20.0283   -8.6148    0.0000 O   0  0  0  0  0  0  0  0  0  0  0  0
  -15.7685  -10.0326    0.0000 C   0  0  0  0  0  0  0  0  0  0  0  0
  -14.6061  -10.9806    0.0000 O   0  0  0  0  0  0  0  0  0  0  0  0
  -17.1708  -10.5653    0.0000 N   0  0  0  0  0  0  0  0  0  0  0  0
  -17.4106  -12.0460    0.0000 C   0  0  0  0  0  0  0  0  0  0  0  0
  -17.1295  -13.5194    0.0000 C   0  0  0  0  0  0  0  0  0  0  0  0
  -18.2649  -14.4995    0.0000 C   0  0  0  0  0  0  0  0  0  0  0  0
  -16.3614  -14.8078    0.0000 C   0  0  0  0  0  0  0  0  0  0  0  0
  -14.8615  -14.7869    0.0000 C   0  0  0  0  0  0  0  0  0  0  0  0
  -18.8128  -12.5787    0.0000 C   0  0  0  0  0  0  0  0  0  0  0  0
  -19.2313  -14.0191    0.0000 O   0  0  0  0  0  0  0  0  0  0  0  0
  -20.0821  -11.7794    0.0000 O   0  0  0  0  0  0  0  0  0  0  0  0
   21.2379   -0.5265    0.0000 H   0  0  0  0  0  0  0  0  0  0  0  0
   21.2697   -5.0189    0.0000 H   0  0  0  0  0  0  0  0  0  0  0  0
   23.8159   -6.6054    0.0000 H   0  0  0  0  0  0  0  0  0  0  0  0
   23.6533   -0.6411    0.0000 H   0  0  0  0  0  0  0  0  0  0  0  0
   30.6578    0.8593    0.0000 H   0  0  0  0  0  0  0  0  0  0  0  0
   31.5667   -4.2568    0.0000 H   0  0  0  0  0  0  0  0  0  0  0  0
   28.6129   -4.7815    0.0000 H   0  0  0  0  0  0  0  0  0  0  0  0
   33.5548   -2.5842    0.0000 H   0  0  0  0  0  0  0  0  0  0  0  0
   23.7279   -3.0106    0.0000 H   0  0  0  0  0  0  0  0  0  0  0  0
   21.7756   -0.5330    0.0000 H   0  0  0  0  0  0  0  0  0  0  0  0
   25.7727    2.6302    0.0000 H   0  0  0  0  0  0  0  0  0  0  0  0
   23.3302    3.5157    0.0000 H   0  0  0  0  0  0  0  0  0  0  0  0
   18.8244   -0.4341    0.0000 H   0  0  0  0  0  0  0  0  0  0  0  0
   18.3754   -3.8200    0.0000 H   0  0  0  0  0  0  0  0  0  0  0  0
   16.5917   -3.8690    0.0000 H   0  0  0  0  0  0  0  0  0  0  0  0
   17.1796   -0.7299    0.0000 H   0  0  0  0  0  0  0  0  0  0  0  0
   15.2523   -0.6651    0.0000 H   0  0  0  0  0  0  0  0  0  0  0  0
   13.6311   -0.2594    0.0000 H   0  0  0  0  0  0  0  0  0  0  0  0
   11.7918   -1.0385    0.0000 H   0  0  0  0  0  0  0  0  0  0  0  0
   13.6476   -5.0713    0.0000 H   0  0  0  0  0  0  0  0  0  0  0  0
   11.9546   -4.5073    0.0000 H   0  0  0  0  0  0  0  0  0  0  0  0
   17.0921   -4.5874    0.0000 H   0  0  0  0  0  0  0  0  0  0  0  0
   15.0322   -6.0070    0.0000 H   0  0  0  0  0  0  0  0  0  0  0  0
   10.4072   -0.1028    0.0000 H   0  0  0  0  0  0  0  0  0  0  0  0
    8.4124   -0.2059    0.0000 H   0  0  0  0  0  0  0  0  0  0  0  0
    8.7769   -4.6301    0.0000 H   0  0  0  0  0  0  0  0  0  0  0  0
    7.4373   -3.6948    0.0000 H   0  0  0  0  0  0  0  0  0  0  0  0
   11.7800   -3.2303    0.0000 H   0  0  0  0  0  0  0  0  0  0  0  0
   10.7066   -1.9986    0.0000 H   0  0  0  0  0  0  0  0  0  0  0  0
   12.6933   -6.6029    0.0000 H   0  0  0  0  0  0  0  0  0  0  0  0
   13.5117   -4.3537    0.0000 H   0  0  0  0  0  0  0  0  0  0  0  0
    7.4312    1.1470    0.0000 H   0  0  0  0  0  0  0  0  0  0  0  0
    5.5215    1.7324    0.0000 H   0  0  0  0  0  0  0  0  0  0  0  0
    4.1853   -2.4711    0.0000 H   0  0  0  0  0  0  0  0  0  0  0  0
    3.4433   -0.8482    0.0000 H   0  0  0  0  0  0  0  0  0  0  0  0
    7.6516   -2.2614    0.0000 H   0  0  0  0  0  0  0  0  0  0  0  0
    7.0642   -0.7368    0.0000 H   0  0  0  0  0  0  0  0  0  0  0  0
    5.5735   -4.8421    0.0000 H   0  0  0  0  0  0  0  0  0  0  0  0
    4.6391   -3.3218    0.0000 H   0  0  0  0  0  0  0  0  0  0  0  0
    8.8617   -3.8792    0.0000 H   0  0  0  0  0  0  0  0  0  0  0  0
    8.5789   -8.0354    0.0000 H   0  0  0  0  0  0  0  0  0  0  0  0
   10.0290   -5.9969    0.0000 H   0  0  0  0  0  0  0  0  0  0  0  0
    5.9823   -7.9481    0.0000 H   0  0  0  0  0  0  0  0  0  0  0  0
    4.7596   -5.6557    0.0000 H   0  0  0  0  0  0  0  0  0  0  0  0
    5.1384    3.1727    0.0000 H   0  0  0  0  0  0  0  0  0  0  0  0
    3.8096    2.1112    0.0000 H   0  0  0  0  0  0  0  0  0  0  0  0
    3.2876    0.7873    0.0000 H   0  0  0  0  0  0  0  0  0  0  0  0
    3.3667    0.2061    0.0000 H   0  0  0  0  0  0  0  0  0  0  0  0
    2.7819   -0.7144    0.0000 H   0  0  0  0  0  0  0  0  0  0  0  0
    2.7048   -0.8634    0.0000 H   0  0  0  0  0  0  0  0  0  0  0  0
    2.0076   -2.1040    0.0000 H   0  0  0  0  0  0  0  0  0  0  0  0
    1.6944   -2.5006    0.0000 H   0  0  0  0  0  0  0  0  0  0  0  0
    0.8238   -3.4103    0.0000 H   0  0  0  0  0  0  0  0  0  0  0  0
    0.4412   -3.7405    0.0000 H   0  0  0  0  0  0  0  0  0  0  0  0
   -0.5858   -4.4690    0.0000 H   0  0  0  0  0  0  0  0  0  0  0  0
   -1.0240   -4.7208    0.0000 H   0  0  0  0  0  0  0  0  0  0  0  0
   -2.3531   -5.2293    0.0000 H   0  0  0  0  0  0  0  0  0  0  0  0
   -3.2279   -5.6881    0.0000 H   0  0  0  0  0  0  0  0  0  0  0  0
    5.1393    3.6704    0.0000 H   0  0  0  0  0  0  0  0  0  0  0  0
    4.8077    5.2703    0.0000 H   0  0  0  0  0  0  0  0  0  0  0  0
    3.0442    5.5430    0.0000 H   0  0  0  0  0  0  0  0  0  0  0  0
    3.3568    6.7409    0.0000 H   0  0  0  0  0  0  0  0  0  0  0  0
    2.7123    7.5326    0.0000 H   0  0  0  0  0  0  0  0  0  0  0  0
    2.0137   10.5407    0.0000 H   0  0  0  0  0  0  0  0  0  0  0  0
    0.5637    9.7879    0.0000 H   0  0  0  0  0  0  0  0  0  0  0  0
    3.5840    7.6801    0.0000 H   0  0  0  0  0  0  0  0  0  0  0  0
    5.4813   10.8145    0.0000 H   0  0  0  0  0  0  0  0  0  0  0  0
    4.1565   12.0100    0.0000 H   0  0  0  0  0  0  0  0  0  0  0  0
    2.6259   11.0926    0.0000 H   0  0  0  0  0  0  0  0  0  0  0  0
    5.9999    9.6732    0.0000 H   0  0  0  0  0  0  0  0  0  0  0  0
    6.0291    7.8890    0.0000 H   0  0  0  0  0  0  0  0  0  0  0  0
    4.1616    7.4083    0.0000 H   0  0  0  0  0  0  0  0  0  0  0  0
    0.0367   11.0801    0.0000 H   0  0  0  0  0  0  0  0  0  0  0  0
   -0.8829   11.4409    0.0000 H   0  0  0  0  0  0  0  0  0  0  0  0
   -2.8374   13.5087    0.0000 H   0  0  0  0  0  0  0  0  0  0  0  0
   -3.8181   12.0179    0.0000 H   0  0  0  0  0  0  0  0  0  0  0  0
   -1.3121   14.4951    0.0000 H   0  0  0  0  0  0  0  0  0  0  0  0
   -4.7779   12.7998    0.0000 H   0  0  0  0  0  0  0  0  0  0  0  0
   -5.9286   12.6264    0.0000 H   0  0  0  0  0  0  0  0  0  0  0  0
   -8.6909   13.3092    0.0000 H   0  0  0  0  0  0  0  0  0  0  0  0
   -8.7099   11.5249    0.0000 H   0  0  0  0  0  0  0  0  0  0  0  0
   -4.4061   13.0455    0.0000 H   0  0  0  0  0  0  0  0  0  0  0  0
   -3.5079   15.7367    0.0000 H   0  0  0  0  0  0  0  0  0  0  0  0
   -5.4319   18.0385    0.0000 H   0  0  0  0  0  0  0  0  0  0  0  0
   -8.3873   17.5231    0.0000 H   0  0  0  0  0  0  0  0  0  0  0  0
   -9.4187   14.7060    0.0000 H   0  0  0  0  0  0  0  0  0  0  0  0
   -9.9401   11.6638    0.0000 H   0  0  0  0  0  0  0  0  0  0  0  0
  -10.8144   10.8957    0.0000 H   0  0  0  0  0  0  0  0  0  0  0  0
  -13.5073    9.9768    0.0000 H   0  0  0  0  0  0  0  0  0  0  0  0
  -12.5586    8.4655    0.0000 H   0  0  0  0  0  0  0  0  0  0  0  0
   -9.7601   12.0714    0.0000 H   0  0  0  0  0  0  0  0  0  0  0  0
  -10.4595   14.8211    0.0000 H   0  0  0  0  0  0  0  0  0  0  0  0
  -13.3225   15.7173    0.0000 H   0  0  0  0  0  0  0  0  0  0  0  0
  -15.5301   13.6859    0.0000 H   0  0  0  0  0  0  0  0  0  0  0  0
  -14.8747   10.7584    0.0000 H   0  0  0  0  0  0  0  0  0  0  0  0
  -13.7626    7.7600    0.0000 H   0  0  0  0  0  0  0  0  0  0  0  0
  -13.9888    6.7984    0.0000 H   0  0  0  0  0  0  0  0  0  0  0  0
  -15.5043    6.3359    0.0000 H   0  0  0  0  0  0  0  0  0  0  0  0
  -15.7574    4.5695    0.0000 H   0  0  0  0  0  0  0  0  0  0  0  0
  -14.1423    3.8110    0.0000 H   0  0  0  0  0  0  0  0  0  0  0  0
  -14.7796    2.7496    0.0000 H   0  0  0  0  0  0  0  0  0  0  0  0
  -14.3843    1.8085    0.0000 H   0  0  0  0  0  0  0  0  0  0  0  0
  -14.5615   -1.2746    0.0000 H   0  0  0  0  0  0  0  0  0  0  0  0
  -12.9581   -0.9609    0.0000 H   0  0  0  0  0  0  0  0  0  0  0  0
  -15.2623    1.9125    0.0000 H   0  0  0  0  0  0  0  0  0  0  0  0
  -17.9658   -0.5604    0.0000 H   0  0  0  0  0  0  0  0  0  0  0  0
  -17.0314   -2.0807    0.0000 H   0  0  0  0  0  0  0  0  0  0  0  0
  -15.3044   -1.6317    0.0000 H   0  0  0  0  0  0  0  0  0  0  0  0
  -18.1418    0.6808    0.0000 H   0  0  0  0  0  0  0  0  0  0  0  0
  -17.6672    2.4009    0.0000 H   0  0  0  0  0  0  0  0  0  0  0  0
  -15.7399    2.3361    0.0000 H   0  0  0  0  0  0  0  0  0  0  0  0
  -12.9205   -2.1983    0.0000 H   0  0  0  0  0  0  0  0  0  0  0  0
   -9.3377   -4.8834    0.0000 H   0  0  0  0  0  0  0  0  0  0  0  0
  -10.4958   -4.3893    0.0000 H   0  0  0  0  0  0  0  0  0  0  0  0
   -7.8723   -5.5026    0.0000 H   0  0  0  0  0  0  0  0  0  0  0  0
   -8.9222   -5.2075    0.0000 H   0  0  0  0  0  0  0  0  0  0  0  0
   -5.9633   -5.7415    0.0000 H   0  0  0  0  0  0  0  0  0  0  0  0
   -7.3814   -5.6227    0.0000 H   0  0  0  0  0  0  0  0  0  0  0  0
   -4.9954   -5.9388    0.0000 H   0  0  0  0  0  0  0  0  0  0  0  0
  -12.7131   -4.2928    0.0000 H   0  0  0  0  0  0  0  0  0  0  0  0
  -13.5340   -2.8802    0.0000 H   0  0  0  0  0  0  0  0  0  0  0  0
  -12.5775   -1.5556    0.0000 H   0  0  0  0  0  0  0  0  0  0  0  0
  -13.5140   -3.7258    0.0000 H   0  0  0  0  0  0  0  0  0  0  0  0
  -10.9846   -5.9848    0.0000 H   0  0  0  0  0  0  0  0  0  0  0  0
  -11.4353   -8.7676    0.0000 H   0  0  0  0  0  0  0  0  0  0  0  0
  -10.8012   -6.9465    0.0000 H   0  0  0  0  0  0  0  0  0  0  0  0
  -13.2280   -9.2203    0.0000 H   0  0  0  0  0  0  0  0  0  0  0  0
  -15.8098   -7.0784    0.0000 H   0  0  0  0  0  0  0  0  0  0  0  0
  -18.4452   -8.0796    0.0000 H   0  0  0  0  0  0  0  0  0  0  0  0
  -16.7888   -7.0921    0.0000 H   0  0  0  0  0  0  0  0  0  0  0  0
  -18.0002  -11.3629    0.0000 H   0  0  0  0  0  0  0  0  0  0  0  0
  -16.7413  -10.9829    0.0000 H   0  0  0  0  0  0  0  0  0  0  0  0
  -21.4918  -11.2336    0.0000 H   0  0  0  0  0  0  0  0  0  0  0  0
  -19.7825  -12.7394    0.0000 H   0  0  0  0  0  0  0  0  0  0  0  0
  -18.5280   -9.9267    0.0000 H   0  0  0  0  0  0  0  0  0  0  0  0
  -15.9107  -12.0250    0.0000 H   0  0  0  0  0  0  0  0  0  0  0  0
  -15.8026  -12.8198    0.0000 H   0  0  0  0  0  0  0  0  0  0  0  0
  -18.1655  -15.9962    0.0000 H   0  0  0  0  0  0  0  0  0  0  0  0
  -19.6672  -15.0322    0.0000 H   0  0  0  0  0  0  0  0  0  0  0  0
  -19.5481  -13.7227    0.0000 H   0  0  0  0  0  0  0  0  0  0  0  0
  -16.0803  -16.2812    0.0000 H   0  0  0  0  0  0  0  0  0  0  0  0
  -17.6882  -15.5075    0.0000 H   0  0  0  0  0  0  0  0  0  0  0  0
  -14.0934  -16.0753    0.0000 H   0  0  0  0  0  0  0  0  0  0  0  0
  -13.4593  -14.2542    0.0000 H   0  0  0  0  0  0  0  0  0  0  0  0
  -14.9609  -13.2901    0.0000 H   0  0  0  0  0  0  0  0  0  0  0  0
  1  2  1  0
  2  3  1  0
  3  4  2  0
  4  5  1  0
  5  6  2  0
  6  7  1  0
  7  8  2  0
  7  9  1  0
  9 10  1  0
 10 11  1  0
 11 12  2  0
  9 13  1  0
 13 14  1  0
 14 15  2  0
 15 16  1  0
 16 17  2  0
 17 18  1  0
 16 19  1  0
 14 20  1  0
 20 21  1  0
 21 22  2  0
 22 23  1  0
 23 24  2  0
 24 25  1  0
 25 26  2  0
 25 27  1  0
  1 28  2  0
  1 29  1  0
 29 30  1  0
 30 31  1  0
 31 32  1  0
 32 33  2  0
 32 34  1  0
 34 35  1  0
 35 36  1  0
 36 37  1  0
 37 38  1  0
 37 39  2  0
 35 40  1  0
 40 41  2  0
 40 42  1  0
 42 43  1  0
 43 44  1  0
 44 45  1  0
 45 46  1  0
 46 47  1  0
 46 48  2  0
 43 49  1  0
 49 50  2  0
 49 51  1  0
 51 52  1  0
 52 53  1  0
 53 54  1  0
 54 55  1  0
 55 56  1  0
 56 57  1  0
 57 58  2  3
 57 59  1  0
 52 60  1  0
 60 61  2  0
 60 62  1  0
 63 62  1  6
 63 64  1  0
 64 65  1  0
 65 66  1  0
 66 67  1  0
 67 68  1  0
 68 69  1  0
 69 70  1  0
 63 71  1  0
 63 72  1  0
 72 73  2  0
 72 74  1  0
 74 75  1  0
 75 76  1  0
 76 77  1  0
 77 78  1  0
 77 79  1  0
 75 80  1  0
 80 81  2  0
 80 82  1  0
 82 83  1  0
 83 84  1  0
 84 85  1  0
 83 86  1  0
 86 87  2  0
 86 88  1  0
 88 89  1  0
 89 90  1  0
 90 91  1  0
 91 92  2  0
 92 93  1  0
 93 94  2  0
 94 95  1  0
 95 96  2  0
 89 97  1  0
 97 98  2  0
 97 99  1  0
 99100  1  0
100101  1  0
101102  1  0
102103  2  0
103104  1  0
104105  2  0
105106  1  0
106107  2  0
100108  1  0
108109  2  0
108110  1  0
110111  1  0
111112  1  0
111113  1  0
113114  2  0
113115  1  0
115116  1  0
116117  1  0
117118  1  0
118119  1  0
118120  1  0
116121  1  0
121122  2  0
121123  1  0
123124  1  0
124125  1  0
125126  1  0
126127  1  0
127128  1  0
124129  1  0
124130  1  1
130131  2  0
130132  1  0
132133  1  0
133134  1  0
134135  1  0
135136  2  0
135137  1  0
133138  1  0
138139  2  0
138140  1  0
140141  1  0
141142  1  0
142143  1  0
143144  1  0
144145  1  0
144146  2  0
141147  1  0
147148  2  0
147149  1  0
149150  1  0
150151  1  0
151152  1  0
151153  1  0
153154  1  0
150155  1  0
155156  2  0
155157  1  0
  8  3  1  0
 96 91  1  0
107102  1  0
 11  6  1  0
 18 13  2  0
 70128  2  0
 22  9  1  0
 26 21  1  0
  2158  1  0
  4159  1  0
  5160  1  0
  8161  1  0
 15162  1  0
 17163  1  0
 18164  1  0
 19165  1  0
 23166  1  0
 24167  1  0
 26168  1  0
 27169  1  0
 29170  1  0
 30171  1  0
 30172  1  0
 31173  1  0
 31174  1  0
 34175  1  0
 35176  1  1
 36177  1  0
 36178  1  0
 38179  1  0
 38180  1  0
 42181  1  0
 43182  1  1
 44183  1  0
 44184  1  0
 45185  1  0
 45186  1  0
 47187  1  0
 47188  1  0
 51189  1  0
 52190  1  1
 53191  1  0
 53192  1  0
 54193  1  0
 54194  1  0
 55195  1  0
 55196  1  0
 56197  1  0
 58198  1  0
 58199  1  0
 59200  1  0
 59201  1  0
 62202  1  0
 64203  1  0
 64204  1  0
 65205  1  0
 65206  1  0
 66207  1  0
 66208  1  0
 67209  1  0
 67210  1  0
 68211  1  0
 68212  1  0
 69213  1  0
 69214  1  0
 70215  1  0
 71216  1  0
 71217  1  0
 71218  1  0
 74219  1  0
 75220  1  6
 76221  1  0
 76222  1  0
 77223  1  0
 78224  1  0
 78225  1  0
 78226  1  0
 79227  1  0
 79228  1  0
 79229  1  0
 82230  1  0
 83231  1  6
 84232  1  0
 84233  1  0
 85234  1  0
 88235  1  0
 89236  1  6
 90237  1  0
 90238  1  0
 92239  1  0
 93240  1  0
 94241  1  0
 95242  1  0
 96243  1  0
 99244  1  0
100245  1  6
101246  1  0
101247  1  0
103248  1  0
104249  1  0
105250  1  0
106251  1  0
107252  1  0
110253  1  0
111254  1  6
112255  1  0
112256  1  0
112257  1  0
115258  1  0
116259  1  6
117260  1  0
117261  1  0
118262  1  0
119263  1  0
119264  1  0
119265  1  0
120266  1  0
120267  1  0
120268  1  0
123269  1  0
125270  1  0
125271  1  0
126272  1  0
126273  1  0
127274  1  0
127275  1  0
128276  1  0
129277  1  0
129278  1  0
129279  1  0
132280  1  0
133281  1  1
134282  1  0
134283  1  0
140284  1  0
141285  1  6
142286  1  0
142287  1  0
143288  1  0
143289  1  0
145290  1  0
145291  1  0
149292  1  0
150293  1  1
151294  1  1
152295  1  0
152296  1  0
152297  1  0
153298  1  0
153299  1  0
154300  1  0
154301  1  0
154302  1  0
M  CHG  3  58   1 137  -1 157  -1
M  END
