
     RDKit          2D

462471  0  0  0  0  0  0  0  0999 V2000
  -30.3227   -2.8858    0.0000 C   0  0  0  0  0  0  0  0  0  0  0  0
  -31.0917   -4.1736    0.0000 N   0  0  0  0  0  0  0  0  0  0  0  0
  -32.5915   -4.1516    0.0000 C   0  0  0  0  0  0  0  0  0  0  0  0
  -33.3224   -2.8416    0.0000 C   0  0  0  0  0  0  0  0  0  0  0  0
  -34.8222   -2.8196    0.0000 C   0  0  0  0  0  0  0  0  0  0  0  0
  -35.5912   -4.1074    0.0000 C   0  0  0  0  0  0  0  0  0  0  0  0
  -34.8604   -5.4174    0.0000 C   0  0  0  0  0  0  0  0  0  0  0  0
  -33.3606   -5.4394    0.0000 C   0  0  0  0  0  0  0  0  0  0  0  0
  -35.8804   -6.5172    0.0000 C   0  0  0  0  0  0  0  0  0  0  0  0
  -37.2416   -5.8870    0.0000 O   0  0  0  0  0  0  0  0  0  0  0  0
  -37.0629   -4.3977    0.0000 C   0  0  0  0  0  0  0  0  0  0  0  0
  -38.1627   -3.3777    0.0000 O   0  0  0  0  0  0  0  0  0  0  0  0
  -37.0098   -7.5044    0.0000 C   0  0  0  0  0  0  0  0  0  0  0  0
  -36.7195   -8.9760    0.0000 C   0  0  0  0  0  0  0  0  0  0  0  0
  -37.8489   -9.9632    0.0000 C   0  0  0  0  0  0  0  0  0  0  0  0
  -39.2685   -9.4787    0.0000 C   0  0  0  0  0  0  0  0  0  0  0  0
  -39.5587   -8.0071    0.0000 C   0  0  0  0  0  0  0  0  0  0  0  0
  -38.4294   -7.0199    0.0000 C   0  0  0  0  0  0  0  0  0  0  0  0
  -40.3979  -10.4659    0.0000 O   0  0  0  0  0  0  0  0  0  0  0  0
  -35.2999   -9.4605    0.0000 O   0  0  0  0  0  0  0  0  0  0  0  0
  -34.1706   -8.4733    0.0000 C   0  0  0  0  0  0  0  0  0  0  0  0
  -34.4608   -7.0016    0.0000 C   0  0  0  0  0  0  0  0  0  0  0  0
  -33.1960   -6.7012    0.0000 C   0  0  0  0  0  0  0  0  0  0  0  0
  -32.4389   -6.9596    0.0000 C   0  0  0  0  0  0  0  0  0  0  0  0
  -32.2841   -7.7445    0.0000 C   0  0  0  0  0  0  0  0  0  0  0  0
  -32.8864   -8.2710    0.0000 C   0  0  0  0  0  0  0  0  0  0  0  0
  -30.2020   -8.4550    0.0000 O   0  0  0  0  0  0  0  0  0  0  0  0
  -31.0535   -1.5758    0.0000 S   0  0  0  0  0  0  0  0  0  0  0  0
  -28.8228   -2.9078    0.0000 N   0  0  0  0  0  0  0  0  0  0  0  0
  -28.0538   -1.6200    0.0000 C   0  0  0  0  0  0  0  0  0  0  0  0
  -26.5540   -1.6420    0.0000 C   0  0  0  0  0  0  0  0  0  0  0  0
  -25.7849   -0.3542    0.0000 C   0  0  0  0  0  0  0  0  0  0  0  0
  -26.3302    0.2273    0.0000 O   0  0  0  0  0  0  0  0  0  0  0  0
  -24.2851   -0.3763    0.0000 N   0  0  0  0  0  0  0  0  0  0  0  0
  -23.5161    0.9116    0.0000 C   0  0  0  0  0  0  0  0  0  0  0  0
  -24.9179    1.4453    0.0000 C   0  0  0  0  0  0  0  0  0  0  0  0
  -26.0810    0.4982    0.0000 C   0  0  0  0  0  0  0  0  0  0  0  0
  -27.4829    1.0319    0.0000 N   0  0  0  0  0  0  0  0  0  0  0  0
  -26.2078   -0.9965    0.0000 O   0  0  0  0  0  0  0  0  0  0  0  0
  -22.3529    1.8588    0.0000 C   0  0  0  0  0  0  0  0  0  0  0  0
  -22.9429    3.2379    0.0000 O   0  0  0  0  0  0  0  0  0  0  0  0
  -20.9511    1.3251    0.0000 N   0  0  0  0  0  0  0  0  0  0  0  0
  -19.7880    2.2722    0.0000 C   0  0  0  0  0  0  0  0  0  0  0  0
  -20.9227    3.2532    0.0000 C   0  0  0  0  0  0  0  0  0  0  0  0
  -22.3397    2.7610    0.0000 C   0  0  0  0  0  0  0  0  0  0  0  0
  -23.4744    3.7420    0.0000 C   0  0  0  0  0  0  0  0  0  0  0  0
  -24.9408    3.4261    0.0000 O   0  0  0  0  0  0  0  0  0  0  0  0
  -23.1922    5.2152    0.0000 O   0  0  0  0  0  0  0  0  0  0  0  0
  -18.3710    2.7645    0.0000 C   0  0  0  0  0  0  0  0  0  0  0  0
  -18.4537    4.2622    0.0000 O   0  0  0  0  0  0  0  0  0  0  0  0
  -17.2363    1.7835    0.0000 N   0  0  0  0  0  0  0  0  0  0  0  0
  -15.8193    2.2757    0.0000 C   0  0  0  0  0  0  0  0  0  0  0  0
  -16.5502    3.5857    0.0000 C   0  0  0  0  0  0  0  0  0  0  0  0
  -18.0500    3.6077    0.0000 C   0  0  0  0  0  0  0  0  0  0  0  0
  -18.7808    4.9177    0.0000 C   0  0  0  0  0  0  0  0  0  0  0  0
  -19.4669    3.1155    0.0000 C   0  0  0  0  0  0  0  0  0  0  0  0
  -14.3195    2.2537    0.0000 C   0  0  0  0  0  0  0  0  0  0  0  0
  -13.8850    3.6893    0.0000 O   0  0  0  0  0  0  0  0  0  0  0  0
  -13.5887    0.9437    0.0000 N   0  0  0  0  0  0  0  0  0  0  0  0
  -12.0889    0.9216    0.0000 C   0  0  0  0  0  0  0  0  0  0  0  0
  -12.3276    2.4025    0.0000 C   0  0  0  0  0  0  0  0  0  0  0  0
  -13.7294    2.9362    0.0000 C   0  0  0  0  0  0  0  0  0  0  0  0
  -13.9681    4.4171    0.0000 C   0  0  0  0  0  0  0  0  0  0  0  0
  -15.3700    4.9508    0.0000 C   0  0  0  0  0  0  0  0  0  0  0  0
  -15.6087    6.4317    0.0000 N   0  0  0  0  0  0  0  0  0  0  0  0
  -10.6870    0.3879    0.0000 C   0  0  0  0  0  0  0  0  0  0  0  0
   -9.7877    1.5884    0.0000 O   0  0  0  0  0  0  0  0  0  0  0  0
  -10.4483   -1.0930    0.0000 N   0  0  0  0  0  0  0  0  0  0  0  0
   -9.0465   -1.6267    0.0000 C   0  0  0  0  0  0  0  0  0  0  0  0
   -9.1908   -0.1336    0.0000 C   0  0  0  0  0  0  0  0  0  0  0  0
   -9.0499    1.3597    0.0000 C   0  0  0  0  0  0  0  0  0  0  0  0
   -8.6290    2.7995    0.0000 C   0  0  0  0  0  0  0  0  0  0  0  0
   -7.9432    4.1335    0.0000 C   0  0  0  0  0  0  0  0  0  0  0  0
   -7.0173    5.3137    0.0000 C   0  0  0  0  0  0  0  0  0  0  0  0
   -5.8848    6.2973    0.0000 C   0  0  0  0  0  0  0  0  0  0  0  0
   -4.5866    7.0488    0.0000 C   0  0  0  0  0  0  0  0  0  0  0  0
  -10.1472   -2.6457    0.0000 C   0  0  0  0  0  0  0  0  0  0  0  0
   -8.6222   -3.0654    0.0000 C   0  0  0  0  0  0  0  0  0  0  0  0
   -9.9356   -3.7900    0.0000 O   0  0  0  0  0  0  0  0  0  0  0  0
   -7.9333   -4.3979    0.0000 N   0  0  0  0  0  0  0  0  0  0  0  0
   -7.0048   -5.5759    0.0000 C   0  0  0  0  0  0  0  0  0  0  0  0
   -7.3798   -7.0282    0.0000 C   0  0  0  0  0  0  0  0  0  0  0  0
   -8.8251   -7.4296    0.0000 O   0  0  0  0  0  0  0  0  0  0  0  0
   -5.8700   -6.5569    0.0000 C   0  0  0  0  0  0  0  0  0  0  0  0
   -6.5831   -7.8765    0.0000 O   0  0  0  0  0  0  0  0  0  0  0  0
   -4.5701   -7.3054    0.0000 N   0  0  0  0  0  0  0  0  0  0  0  0
   -3.1520   -7.7943    0.0000 C   0  0  0  0  0  0  0  0  0  0  0  0
   -2.6823   -9.2189    0.0000 C   0  0  0  0  0  0  0  0  0  0  0  0
   -3.6812  -10.3380    0.0000 C   0  0  0  0  0  0  0  0  0  0  0  0
   -5.1498  -10.0324    0.0000 C   0  0  0  0  0  0  0  0  0  0  0  0
   -6.1486  -11.1515    0.0000 C   0  0  0  0  0  0  0  0  0  0  0  0
   -5.6789  -12.5761    0.0000 C   0  0  0  0  0  0  0  0  0  0  0  0
   -4.2104  -12.8816    0.0000 C   0  0  0  0  0  0  0  0  0  0  0  0
   -3.2115  -11.7625    0.0000 C   0  0  0  0  0  0  0  0  0  0  0  0
   -1.6671   -8.0061    0.0000 C   0  0  0  0  0  0  0  0  0  0  0  0
   -1.5535   -9.5018    0.0000 O   0  0  0  0  0  0  0  0  0  0  0  0
   -0.1688   -7.9330    0.0000 N   0  0  0  0  0  0  0  0  0  0  0  0
    1.2885   -7.5777    0.0000 C   0  0  0  0  0  0  0  0  0  0  0  0
    2.4538   -8.5222    0.0000 C   0  0  0  0  0  0  0  0  0  0  0  0
    2.2185  -10.0036    0.0000 C   0  0  0  0  0  0  0  0  0  0  0  0
    0.8179  -10.5405    0.0000 C   0  0  0  0  0  0  0  0  0  0  0  0
    0.5826  -12.0220    0.0000 C   0  0  0  0  0  0  0  0  0  0  0  0
    1.7479  -12.9665    0.0000 C   0  0  0  0  0  0  0  0  0  0  0  0
    3.1485  -12.4295    0.0000 C   0  0  0  0  0  0  0  0  0  0  0  0
    3.3838  -10.9481    0.0000 C   0  0  0  0  0  0  0  0  0  0  0  0
    2.6522   -6.9530    0.0000 C   0  0  0  0  0  0  0  0  0  0  0  0
    3.5563   -8.1499    0.0000 O   0  0  0  0  0  0  0  0  0  0  0  0
    3.8731   -6.0815    0.0000 N   0  0  0  0  0  0  0  0  0  0  0  0
    4.9069   -4.9947    0.0000 C   0  0  0  0  0  0  0  0  0  0  0  0
    6.3979   -5.1592    0.0000 C   0  0  0  0  0  0  0  0  0  0  0  0
    5.7164   -3.7319    0.0000 C   0  0  0  0  0  0  0  0  0  0  0  0
    7.1241   -4.2500    0.0000 O   0  0  0  0  0  0  0  0  0  0  0  0
    6.2723   -2.3387    0.0000 N   0  0  0  0  0  0  0  0  0  0  0  0
    6.5545   -0.8655    0.0000 C   0  0  0  0  0  0  0  0  0  0  0  0
    7.8977   -0.1978    0.0000 C   0  0  0  0  0  0  0  0  0  0  0  0
    9.1475   -1.0273    0.0000 C   0  0  0  0  0  0  0  0  0  0  0  0
   10.4908   -0.3596    0.0000 C   0  0  0  0  0  0  0  0  0  0  0  0
   10.0383   -2.2341    0.0000 C   0  0  0  0  0  0  0  0  0  0  0  0
    6.5528    0.6345    0.0000 C   0  0  0  0  0  0  0  0  0  0  0  0
    8.0171    0.9597    0.0000 O   0  0  0  0  0  0  0  0  0  0  0  0
    6.2672    2.1071    0.0000 N   0  0  0  0  0  0  0  0  0  0  0  0
    5.7081    3.4990    0.0000 C   0  0  0  0  0  0  0  0  0  0  0  0
    6.4771    4.7869    0.0000 C   0  0  0  0  0  0  0  0  0  0  0  0
    7.9770    4.7648    0.0000 C   0  0  0  0  0  0  0  0  0  0  0  0
    8.7460    6.0526    0.0000 C   0  0  0  0  0  0  0  0  0  0  0  0
   10.2458    6.0306    0.0000 N   0  0  0  0  0  0  0  0  0  0  0  0
   11.0149    7.3184    0.0000 C   0  0  0  0  0  0  0  0  0  0  0  0
   12.5147    7.2964    0.0000 N   0  0  0  0  0  0  0  0  0  0  0  0
    9.9888    8.4126    0.0000 N   0  0  0  0  0  0  0  0  0  0  0  0
    4.8957    4.7599    0.0000 C   0  0  0  0  0  0  0  0  0  0  0  0
    5.9517    5.8252    0.0000 O   0  0  0  0  0  0  0  0  0  0  0  0
    3.8593    5.8443    0.0000 N   0  0  0  0  0  0  0  0  0  0  0  0
    2.6365    6.7130    0.0000 C   0  0  0  0  0  0  0  0  0  0  0  0
    1.2713    7.3346    0.0000 C   0  0  0  0  0  0  0  0  0  0  0  0
   -0.1868    7.6865    0.0000 C   0  0  0  0  0  0  0  0  0  0  0  0
   -1.6852    7.7562    0.0000 C   0  0  0  0  0  0  0  0  0  0  0  0
   -3.1697    7.5410    0.0000 C   0  0  0  0  0  0  0  0  0  0  0  0
    3.9578    7.4230    0.0000 C   0  0  0  0  0  0  0  0  0  0  0  0
    2.5871    8.2122    0.0000 C   0  0  0  0  0  0  0  0  0  0  0  0
    1.4745    9.2182    0.0000 O   0  0  0  0  0  0  0  0  0  0  0  0
    3.8608    9.0045    0.0000 N   0  0  0  0  0  0  0  0  0  0  0  0
    3.8115   10.5037    0.0000 C   0  0  0  0  0  0  0  0  0  0  0  0
    3.2524   11.8956    0.0000 C   0  0  0  0  0  0  0  0  0  0  0  0
    4.1783   13.0758    0.0000 C   0  0  0  0  0  0  0  0  0  0  0  0
    3.6192   14.4677    0.0000 C   0  0  0  0  0  0  0  0  0  0  0  0
    4.3943   15.7519    0.0000 N   0  0  0  0  0  0  0  0  0  0  0  0
    2.1342   14.6794    0.0000 O   0  0  0  0  0  0  0  0  0  0  0  0
    5.0852   11.2960    0.0000 C   0  0  0  0  0  0  0  0  0  0  0  0
    6.4082   10.5891    0.0000 O   0  0  0  0  0  0  0  0  0  0  0  0
    5.0358   12.7952    0.0000 N   0  0  0  0  0  0  0  0  0  0  0  0
    6.3095   13.5875    0.0000 C   0  0  0  0  0  0  0  0  0  0  0  0
    7.7774   13.8964    0.0000 C   0  0  0  0  0  0  0  0  0  0  0  0
    8.4788   12.5705    0.0000 C   0  0  0  0  0  0  0  0  0  0  0  0
    9.0510   14.6887    0.0000 C   0  0  0  0  0  0  0  0  0  0  0  0
   10.1637   13.6827    0.0000 C   0  0  0  0  0  0  0  0  0  0  0  0
    6.2602   15.0867    0.0000 C   0  0  0  0  0  0  0  0  0  0  0  0
    5.0332   15.9496    0.0000 O   0  0  0  0  0  0  0  0  0  0  0  0
    7.5339   15.8790    0.0000 N   0  0  0  0  0  0  0  0  0  0  0  0
    7.6415   17.3751    0.0000 C   0  0  0  0  0  0  0  0  0  0  0  0
    9.0977   17.7351    0.0000 C   0  0  0  0  0  0  0  0  0  0  0  0
    9.8900   16.4614    0.0000 C   0  0  0  0  0  0  0  0  0  0  0  0
    8.9235   15.3143    0.0000 C   0  0  0  0  0  0  0  0  0  0  0  0
   10.1654   14.4730    0.0000 C   0  0  0  0  0  0  0  0  0  0  0  0
   11.5149   15.1278    0.0000 O   0  0  0  0  0  0  0  0  0  0  0  0
   10.0577   12.9769    0.0000 N   0  0  0  0  0  0  0  0  0  0  0  0
   11.2996   12.1356    0.0000 C   0  0  0  0  0  0  0  0  0  0  0  0
   12.7543   11.7697    0.0000 C   0  0  0  0  0  0  0  0  0  0  0  0
   13.1648   10.3270    0.0000 C   0  0  0  0  0  0  0  0  0  0  0  0
   14.6195    9.9612    0.0000 C   0  0  0  0  0  0  0  0  0  0  0  0
   15.2029    8.5793    0.0000 O   0  0  0  0  0  0  0  0  0  0  0  0
   15.6637   11.0381    0.0000 O   0  0  0  0  0  0  0  0  0  0  0  0
   11.1919   10.6394    0.0000 C   0  0  0  0  0  0  0  0  0  0  0  0
    9.8424    9.9846    0.0000 O   0  0  0  0  0  0  0  0  0  0  0  0
   12.4338    9.7981    0.0000 N   0  0  0  0  0  0  0  0  0  0  0  0
   12.3261    8.3020    0.0000 C   0  0  0  0  0  0  0  0  0  0  0  0
   11.7132    6.9329    0.0000 C   0  0  0  0  0  0  0  0  0  0  0  0
   12.5925    5.7176    0.0000 C   0  0  0  0  0  0  0  0  0  0  0  0
   11.9796    4.3485    0.0000 C   0  0  0  0  0  0  0  0  0  0  0  0
   13.8343    4.8763    0.0000 C   0  0  0  0  0  0  0  0  0  0  0  0
   13.5680    7.4607    0.0000 C   0  0  0  0  0  0  0  0  0  0  0  0
   14.9873    7.9461    0.0000 O   0  0  0  0  0  0  0  0  0  0  0  0
   13.4603    5.9646    0.0000 N   0  0  0  0  0  0  0  0  0  0  0  0
   14.7022    5.1233    0.0000 C   0  0  0  0  0  0  0  0  0  0  0  0
   16.1569    4.7574    0.0000 C   0  0  0  0  0  0  0  0  0  0  0  0
   16.5674    3.3147    0.0000 C   0  0  0  0  0  0  0  0  0  0  0  0
   18.0221    2.9489    0.0000 C   0  0  0  0  0  0  0  0  0  0  0  0
   18.6055    1.5670    0.0000 O   0  0  0  0  0  0  0  0  0  0  0  0
   19.0663    4.0258    0.0000 O   0  0  0  0  0  0  0  0  0  0  0  0
   14.5945    3.6271    0.0000 C   0  0  0  0  0  0  0  0  0  0  0  0
   13.4436    2.6652    0.0000 O   0  0  0  0  0  0  0  0  0  0  0  0
   15.8364    2.7858    0.0000 N   0  0  0  0  0  0  0  0  0  0  0  0
   15.7287    1.2897    0.0000 C   0  0  0  0  0  0  0  0  0  0  0  0
   15.1158   -0.0794    0.0000 C   0  0  0  0  0  0  0  0  0  0  0  0
   15.9951   -1.2947    0.0000 C   0  0  0  0  0  0  0  0  0  0  0  0
   15.3822   -2.6638    0.0000 N   0  0  0  0  0  0  0  0  0  0  0  0
   17.4800   -1.5065    0.0000 O   0  0  0  0  0  0  0  0  0  0  0  0
   16.9706    0.4484    0.0000 C   0  0  0  0  0  0  0  0  0  0  0  0
   18.3899    0.9338    0.0000 O   0  0  0  0  0  0  0  0  0  0  0  0
   16.8629   -1.0477    0.0000 N   0  0  0  0  0  0  0  0  0  0  0  0
   18.1048   -1.8890    0.0000 C   0  0  0  0  0  0  0  0  0  0  0  0
   19.5595   -2.2549    0.0000 C   0  0  0  0  0  0  0  0  0  0  0  0
   19.9700   -3.6976    0.0000 C   0  0  0  0  0  0  0  0  0  0  0  0
   21.4247   -4.0634    0.0000 N   0  0  0  0  0  0  0  0  0  0  0  0
   19.2175   -4.9951    0.0000 O   0  0  0  0  0  0  0  0  0  0  0  0
   17.9971   -3.3852    0.0000 C   0  0  0  0  0  0  0  0  0  0  0  0
   16.7375   -4.1996    0.0000 O   0  0  0  0  0  0  0  0  0  0  0  0
   19.2390   -4.2265    0.0000 N   0  0  0  0  0  0  0  0  0  0  0  0
   19.1313   -5.7226    0.0000 C   0  0  0  0  0  0  0  0  0  0  0  0
   18.5184   -7.0917    0.0000 C   0  0  0  0  0  0  0  0  0  0  0  0
   19.3977   -8.3070    0.0000 C   0  0  0  0  0  0  0  0  0  0  0  0
   18.7848   -9.6761    0.0000 C   0  0  0  0  0  0  0  0  0  0  0  0
   19.5093  -10.9895    0.0000 O   0  0  0  0  0  0  0  0  0  0  0  0
   17.2927   -9.8299    0.0000 O   0  0  0  0  0  0  0  0  0  0  0  0
   20.3732   -6.5639    0.0000 C   0  0  0  0  0  0  0  0  0  0  0  0
   21.7925   -6.0785    0.0000 O   0  0  0  0  0  0  0  0  0  0  0  0
   20.2655   -8.0600    0.0000 N   0  0  0  0  0  0  0  0  0  0  0  0
   21.5074   -8.9013    0.0000 C   0  0  0  0  0  0  0  0  0  0  0  0
   22.9621   -9.2672    0.0000 C   0  0  0  0  0  0  0  0  0  0  0  0
   23.3726  -10.7099    0.0000 C   0  0  0  0  0  0  0  0  0  0  0  0
   24.8273  -11.0757    0.0000 C   0  0  0  0  0  0  0  0  0  0  0  0
   25.2379  -12.5184    0.0000 C   0  0  0  0  0  0  0  0  0  0  0  0
   26.6926  -12.8843    0.0000 N   0  0  0  0  0  0  0  0  0  0  0  0
   21.3997  -10.3975    0.0000 C   0  0  0  0  0  0  0  0  0  0  0  0
   20.1401  -11.2119    0.0000 O   0  0  0  0  0  0  0  0  0  0  0  0
   22.6416  -11.2388    0.0000 N   0  0  0  0  0  0  0  0  0  0  0  0
   22.5339  -12.7349    0.0000 C   0  0  0  0  0  0  0  0  0  0  0  0
   21.7587  -14.0191    0.0000 C   0  0  0  0  0  0  0  0  0  0  0  0
   23.7758  -13.5762    0.0000 C   0  0  0  0  0  0  0  0  0  0  0  0
   25.2436  -13.2674    0.0000 O   0  0  0  0  0  0  0  0  0  0  0  0
   23.6681  -15.0723    0.0000 N   0  0  0  0  0  0  0  0  0  0  0  0
   24.8152  -16.0388    0.0000 C   0  0  0  0  0  0  0  0  0  0  0  0
   24.2505  -17.4285    0.0000 C   0  0  0  0  0  0  0  0  0  0  0  0
   22.7544  -17.3208    0.0000 C   0  0  0  0  0  0  0  0  0  0  0  0
   22.3944  -15.8646    0.0000 C   0  0  0  0  0  0  0  0  0  0  0  0
   20.9839  -16.3748    0.0000 C   0  0  0  0  0  0  0  0  0  0  0  0
   19.8368  -15.4083    0.0000 O   0  0  0  0  0  0  0  0  0  0  0  0
   20.5424  -17.8084    0.0000 O   0  0  0  0  0  0  0  0  0  0  0  0
  -30.2067   -5.3847    0.0000 H   0  0  0  0  0  0  0  0  0  0  0  0
  -32.5533   -1.5538    0.0000 H   0  0  0  0  0  0  0  0  0  0  0  0
  -35.5530   -1.5096    0.0000 H   0  0  0  0  0  0  0  0  0  0  0  0
  -32.3345   -6.5336    0.0000 H   0  0  0  0  0  0  0  0  0  0  0  0
  -37.5586  -11.4349    0.0000 H   0  0  0  0  0  0  0  0  0  0  0  0
  -40.9784   -7.5226    0.0000 H   0  0  0  0  0  0  0  0  0  0  0  0
  -38.7196   -5.5482    0.0000 H   0  0  0  0  0  0  0  0  0  0  0  0
  -41.8175   -9.9815    0.0000 H   0  0  0  0  0  0  0  0  0  0  0  0
  -33.6217   -4.5428    0.0000 H   0  0  0  0  0  0  0  0  0  0  0  0
  -30.6705   -5.6568    0.0000 H   0  0  0  0  0  0  0  0  0  0  0  0
  -32.4607  -10.4294    0.0000 H   0  0  0  0  0  0  0  0  0  0  0  0
  -29.9117   -9.9267    0.0000 H   0  0  0  0  0  0  0  0  0  0  0  0
  -28.0920   -4.2178    0.0000 H   0  0  0  0  0  0  0  0  0  0  0  0
  -29.4556   -1.0863    0.0000 H   0  0  0  0  0  0  0  0  0  0  0  0
  -27.9533   -0.1233    0.0000 H   0  0  0  0  0  0  0  0  0  0  0  0
  -26.8361   -3.1153    0.0000 H   0  0  0  0  0  0  0  0  0  0  0  0
  -25.1521   -2.1758    0.0000 H   0  0  0  0  0  0  0  0  0  0  0  0
  -23.5543   -1.6862    0.0000 H   0  0  0  0  0  0  0  0  0  0  0  0
  -22.3813   -0.0694    0.0000 H   0  0  0  0  0  0  0  0  0  0  0  0
  -26.0527    2.4263    0.0000 H   0  0  0  0  0  0  0  0  0  0  0  0
  -24.3116    2.8173    0.0000 H   0  0  0  0  0  0  0  0  0  0  0  0
  -28.7528    0.2335    0.0000 H   0  0  0  0  0  0  0  0  0  0  0  0
  -27.7216    2.5128    0.0000 H   0  0  0  0  0  0  0  0  0  0  0  0
  -20.7124   -0.1558    0.0000 H   0  0  0  0  0  0  0  0  0  0  0  0
  -19.2223    0.8830    0.0000 H   0  0  0  0  0  0  0  0  0  0  0  0
  -21.6535    4.5632    0.0000 H   0  0  0  0  0  0  0  0  0  0  0  0
  -20.0234    4.4537    0.0000 H   0  0  0  0  0  0  0  0  0  0  0  0
  -23.5028    1.8138    0.0000 H   0  0  0  0  0  0  0  0  0  0  0  0
  -21.9475    1.3131    0.0000 H   0  0  0  0  0  0  0  0  0  0  0  0
  -17.5185    0.3103    0.0000 H   0  0  0  0  0  0  0  0  0  0  0  0
  -15.5806    0.7948    0.0000 H   0  0  0  0  0  0  0  0  0  0  0  0
  -16.7889    5.0665    0.0000 H   0  0  0  0  0  0  0  0  0  0  0  0
  -15.0838    3.9015    0.0000 H   0  0  0  0  0  0  0  0  0  0  0  0
  -18.1767    2.1131    0.0000 H   0  0  0  0  0  0  0  0  0  0  0  0
  -20.2307    5.3020    0.0000 H   0  0  0  0  0  0  0  0  0  0  0  0
  -19.0195    6.3985    0.0000 H   0  0  0  0  0  0  0  0  0  0  0  0
  -17.5251    5.7381    0.0000 H   0  0  0  0  0  0  0  0  0  0  0  0
  -20.6017    4.0965    0.0000 H   0  0  0  0  0  0  0  0  0  0  0  0
  -20.8247    2.4779    0.0000 H   0  0  0  0  0  0  0  0  0  0  0  0
  -18.5819    1.9044    0.0000 H   0  0  0  0  0  0  0  0  0  0  0  0
  -14.3577   -0.3441    0.0000 H   0  0  0  0  0  0  0  0  0  0  0  0
  -12.3710   -0.5516    0.0000 H   0  0  0  0  0  0  0  0  0  0  0  0
  -11.8679    3.8304    0.0000 H   0  0  0  0  0  0  0  0  0  0  0  0
  -10.8277    2.3805    0.0000 H   0  0  0  0  0  0  0  0  0  0  0  0
  -15.2208    2.7753    0.0000 H   0  0  0  0  0  0  0  0  0  0  0  0
  -14.3597    1.5751    0.0000 H   0  0  0  0  0  0  0  0  0  0  0  0
  -13.5085    5.8450    0.0000 H   0  0  0  0  0  0  0  0  0  0  0  0
  -12.4768    4.5780    0.0000 H   0  0  0  0  0  0  0  0  0  0  0  0
  -16.8199    5.3352    0.0000 H   0  0  0  0  0  0  0  0  0  0  0  0
  -15.6521    3.4776    0.0000 H   0  0  0  0  0  0  0  0  0  0  0  0
  -17.0105    6.9654    0.0000 H   0  0  0  0  0  0  0  0  0  0  0  0
  -15.3265    7.9049    0.0000 H   0  0  0  0  0  0  0  0  0  0  0  0
  -14.1173    6.5926    0.0000 H   0  0  0  0  0  0  0  0  0  0  0  0
  -11.7182   -1.8913    0.0000 H   0  0  0  0  0  0  0  0  0  0  0  0
  -10.6183   -0.5942    0.0000 H   0  0  0  0  0  0  0  0  0  0  0  0
  -10.3606    0.8053    0.0000 H   0  0  0  0  0  0  0  0  0  0  0  0
  -10.5499    1.3605    0.0000 H   0  0  0  0  0  0  0  0  0  0  0  0
  -10.1530    2.3762    0.0000 H   0  0  0  0  0  0  0  0  0  0  0  0
  -10.1059    2.5373    0.0000 H   0  0  0  0  0  0  0  0  0  0  0  0
   -9.6602    3.8888    0.0000 H   0  0  0  0  0  0  0  0  0  0  0  0
   -9.4291    4.3382    0.0000 H   0  0  0  0  0  0  0  0  0  0  0  0
   -8.7496    5.3983    0.0000 H   0  0  0  0  0  0  0  0  0  0  0  0
   -8.4377    5.7959    0.0000 H   0  0  0  0  0  0  0  0  0  0  0  0
   -7.5698    6.7082    0.0000 H   0  0  0  0  0  0  0  0  0  0  0  0
   -7.1882    7.0396    0.0000 H   0  0  0  0  0  0  0  0  0  0  0  0
   -5.9817    7.7941    0.0000 H   0  0  0  0  0  0  0  0  0  0  0  0
   -5.2113    8.4125    0.0000 H   0  0  0  0  0  0  0  0  0  0  0  0
  -11.6235   -2.3799    0.0000 H   0  0  0  0  0  0  0  0  0  0  0  0
  -10.9905   -3.8862    0.0000 H   0  0  0  0  0  0  0  0  0  0  0  0
   -9.2075   -3.8149    0.0000 H   0  0  0  0  0  0  0  0  0  0  0  0
   -9.1943   -5.2103    0.0000 H   0  0  0  0  0  0  0  0  0  0  0  0
   -8.4726   -5.8848    0.0000 H   0  0  0  0  0  0  0  0  0  0  0  0
   -7.4186   -8.5277    0.0000 H   0  0  0  0  0  0  0  0  0  0  0  0
   -5.9572   -7.5038    0.0000 H   0  0  0  0  0  0  0  0  0  0  0  0
   -9.2002   -8.8820    0.0000 H   0  0  0  0  0  0  0  0  0  0  0  0
   -5.3534   -8.5846    0.0000 H   0  0  0  0  0  0  0  0  0  0  0  0
   -4.2199   -8.8478    0.0000 H   0  0  0  0  0  0  0  0  0  0  0  0
   -1.9043  -10.5013    0.0000 H   0  0  0  0  0  0  0  0  0  0  0  0
   -1.2285   -8.8498    0.0000 H   0  0  0  0  0  0  0  0  0  0  0  0
   -5.7896   -8.6757    0.0000 H   0  0  0  0  0  0  0  0  0  0  0  0
   -7.6172  -10.8460    0.0000 H   0  0  0  0  0  0  0  0  0  0  0  0
   -6.6778  -13.6951    0.0000 H   0  0  0  0  0  0  0  0  0  0  0  0
   -3.7407  -14.3061    0.0000 H   0  0  0  0  0  0  0  0  0  0  0  0
   -1.7430  -12.0680    0.0000 H   0  0  0  0  0  0  0  0  0  0  0  0
   -0.1362   -9.4326    0.0000 H   0  0  0  0  0  0  0  0  0  0  0  0
    0.9597   -9.0412    0.0000 H   0  0  0  0  0  0  0  0  0  0  0  0
    3.8017   -9.1804    0.0000 H   0  0  0  0  0  0  0  0  0  0  0  0
    3.4773   -7.4256    0.0000 H   0  0  0  0  0  0  0  0  0  0  0  0
   -0.4539   -9.7451    0.0000 H   0  0  0  0  0  0  0  0  0  0  0  0
   -0.8180  -12.5589    0.0000 H   0  0  0  0  0  0  0  0  0  0  0  0
    1.5126  -14.4479    0.0000 H   0  0  0  0  0  0  0  0  0  0  0  0
    4.3138  -13.3740    0.0000 H   0  0  0  0  0  0  0  0  0  0  0  0
    4.7844  -10.4111    0.0000 H   0  0  0  0  0  0  0  0  0  0  0  0
    4.8567   -7.2140    0.0000 H   0  0  0  0  0  0  0  0  0  0  0  0
    5.4216   -6.4037    0.0000 H   0  0  0  0  0  0  0  0  0  0  0  0
    7.0009   -6.5327    0.0000 H   0  0  0  0  0  0  0  0  0  0  0  0
    7.8876   -4.9842    0.0000 H   0  0  0  0  0  0  0  0  0  0  0  0
    6.6661   -3.6834    0.0000 H   0  0  0  0  0  0  0  0  0  0  0  0
    7.6500   -2.9320    0.0000 H   0  0  0  0  0  0  0  0  0  0  0  0
    7.6297   -1.9114    0.0000 H   0  0  0  0  0  0  0  0  0  0  0  0
    8.9316    0.8890    0.0000 H   0  0  0  0  0  0  0  0  0  0  0  0
    7.3255    1.1887    0.0000 H   0  0  0  0  0  0  0  0  0  0  0  0
    8.4074   -2.3319    0.0000 H   0  0  0  0  0  0  0  0  0  0  0  0
   11.8324   -1.0305    0.0000 H   0  0  0  0  0  0  0  0  0  0  0  0
   11.5246    0.7272    0.0000 H   0  0  0  0  0  0  0  0  0  0  0  0
    9.7538    0.9468    0.0000 H   0  0  0  0  0  0  0  0  0  0  0  0
   11.5382   -2.2491    0.0000 H   0  0  0  0  0  0  0  0  0  0  0  0
   10.4625   -3.6729    0.0000 H   0  0  0  0  0  0  0  0  0  0  0  0
    8.6951   -2.9018    0.0000 H   0  0  0  0  0  0  0  0  0  0  0  0
    7.7469    2.3528    0.0000 H   0  0  0  0  0  0  0  0  0  0  0  0
    7.1781    3.2004    0.0000 H   0  0  0  0  0  0  0  0  0  0  0  0
    6.7593    6.2601    0.0000 H   0  0  0  0  0  0  0  0  0  0  0  0
    5.2461    5.6439    0.0000 H   0  0  0  0  0  0  0  0  0  0  0  0
    9.3788    4.2311    0.0000 H   0  0  0  0  0  0  0  0  0  0  0  0
    8.0597    3.2671    0.0000 H   0  0  0  0  0  0  0  0  0  0  0  0
    9.0282    7.5259    0.0000 H   0  0  0  0  0  0  0  0  0  0  0  0
    7.4197    6.7533    0.0000 H   0  0  0  0  0  0  0  0  0  0  0  0
   10.8115    4.6413    0.0000 H   0  0  0  0  0  0  0  0  0  0  0  0
   13.4350    8.4809    0.0000 H   0  0  0  0  0  0  0  0  0  0  0  0
   13.3997    6.0853    0.0000 H   0  0  0  0  0  0  0  0  0  0  0  0
   11.4636    9.5550    0.0000 H   0  0  0  0  0  0  0  0  0  0  0  0
    8.7842    8.6504    0.0000 H   0  0  0  0  0  0  0  0  0  0  0  0
    4.9713    6.8511    0.0000 H   0  0  0  0  0  0  0  0  0  0  0  0
    0.9391    8.7973    0.0000 H   0  0  0  0  0  0  0  0  0  0  0  0
    2.1707    8.5350    0.0000 H   0  0  0  0  0  0  0  0  0  0  0  0
   -0.6179    9.1233    0.0000 H   0  0  0  0  0  0  0  0  0  0  0  0
    0.4691    9.0355    0.0000 H   0  0  0  0  0  0  0  0  0  0  0  0
   -2.5372    8.9907    0.0000 H   0  0  0  0  0  0  0  0  0  0  0  0
   -1.1227    9.1467    0.0000 H   0  0  0  0  0  0  0  0  0  0  0  0
   -3.5250    8.9983    0.0000 H   0  0  0  0  0  0  0  0  0  0  0  0
    4.3651    8.8666    0.0000 H   0  0  0  0  0  0  0  0  0  0  0  0
    5.4423    7.6381    0.0000 H   0  0  0  0  0  0  0  0  0  0  0  0
    4.7583    6.1544    0.0000 H   0  0  0  0  0  0  0  0  0  0  0  0
    5.2601    8.4642    0.0000 H   0  0  0  0  0  0  0  0  0  0  0  0
    2.3436   10.1948    0.0000 H   0  0  0  0  0  0  0  0  0  0  0  0
    2.2510   13.0124    0.0000 H   0  0  0  0  0  0  0  0  0  0  0  0
    1.9787   11.1033    0.0000 H   0  0  0  0  0  0  0  0  0  0  0  0
    5.4519   13.8681    0.0000 H   0  0  0  0  0  0  0  0  0  0  0  0
    5.5868   12.5600    0.0000 H   0  0  0  0  0  0  0  0  0  0  0  0
    3.9860   17.0397    0.0000 H   0  0  0  0  0  0  0  0  0  0  0  0
    6.0578   15.8413    0.0000 H   0  0  0  0  0  0  0  0  0  0  0  0
    3.9232   13.8012    0.0000 H   0  0  0  0  0  0  0  0  0  0  0  0
    6.6948   12.1378    0.0000 H   0  0  0  0  0  0  0  0  0  0  0  0
    7.5717   15.3822    0.0000 H   0  0  0  0  0  0  0  0  0  0  0  0
   10.2726   12.5236    0.0000 H   0  0  0  0  0  0  0  0  0  0  0  0
    9.3379   11.3878    0.0000 H   0  0  0  0  0  0  0  0  0  0  0  0
    7.6112   11.8380    0.0000 H   0  0  0  0  0  0  0  0  0  0  0  0
   10.2350   15.6098    0.0000 H   0  0  0  0  0  0  0  0  0  0  0  0
    8.3496   16.0146    0.0000 H   0  0  0  0  0  0  0  0  0  0  0  0
   11.7697   14.5851    0.0000 H   0  0  0  0  0  0  0  0  0  0  0  0
   11.5880   13.3538    0.0000 H   0  0  0  0  0  0  0  0  0  0  0  0
    9.8115   12.6038    0.0000 H   0  0  0  0  0  0  0  0  0  0  0  0
    6.1423   17.3258    0.0000 H   0  0  0  0  0  0  0  0  0  0  0  0
    7.4358   18.8610    0.0000 H   0  0  0  0  0  0  0  0  0  0  0  0
    8.5875   19.1457    0.0000 H   0  0  0  0  0  0  0  0  0  0  0  0
   10.4472   18.3899    0.0000 H   0  0  0  0  0  0  0  0  0  0  0  0
   11.0739   17.3825    0.0000 H   0  0  0  0  0  0  0  0  0  0  0  0
   11.0539   15.5151    0.0000 H   0  0  0  0  0  0  0  0  0  0  0  0
    8.5578   13.8596    0.0000 H   0  0  0  0  0  0  0  0  0  0  0  0
    8.9068   12.0149    0.0000 H   0  0  0  0  0  0  0  0  0  0  0  0
   12.0748   13.4197    0.0000 H   0  0  0  0  0  0  0  0  0  0  0  0
   14.2464   11.9235    0.0000 H   0  0  0  0  0  0  0  0  0  0  0  0
   12.8619   13.2659    0.0000 H   0  0  0  0  0  0  0  0  0  0  0  0
   13.2403    8.8289    0.0000 H   0  0  0  0  0  0  0  0  0  0  0  0
   12.0309    9.3451    0.0000 H   0  0  0  0  0  0  0  0  0  0  0  0
   13.9016   10.1069    0.0000 H   0  0  0  0  0  0  0  0  0  0  0  0
   10.9269    8.8424    0.0000 H   0  0  0  0  0  0  0  0  0  0  0  0
   10.8081    5.7368    0.0000 H   0  0  0  0  0  0  0  0  0  0  0  0
   10.8555    8.1634    0.0000 H   0  0  0  0  0  0  0  0  0  0  0  0
   14.0655    6.0006    0.0000 H   0  0  0  0  0  0  0  0  0  0  0  0
   12.5386    2.9566    0.0000 H   0  0  0  0  0  0  0  0  0  0  0  0
   10.9354    3.2716    0.0000 H   0  0  0  0  0  0  0  0  0  0  0  0
   10.5711    4.8643    0.0000 H   0  0  0  0  0  0  0  0  0  0  0  0
   13.7267    3.3802    0.0000 H   0  0  0  0  0  0  0  0  0  0  0  0
   15.2890    4.5105    0.0000 H   0  0  0  0  0  0  0  0  0  0  0  0
   14.2757    6.3099    0.0000 H   0  0  0  0  0  0  0  0  0  0  0  0
   12.3094    5.0026    0.0000 H   0  0  0  0  0  0  0  0  0  0  0  0
   15.4774    6.4074    0.0000 H   0  0  0  0  0  0  0  0  0  0  0  0
   17.6490    4.9112    0.0000 H   0  0  0  0  0  0  0  0  0  0  0  0
   16.2645    6.2536    0.0000 H   0  0  0  0  0  0  0  0  0  0  0  0
   16.4598    1.8186    0.0000 H   0  0  0  0  0  0  0  0  0  0  0  0
   15.3223    2.4783    0.0000 H   0  0  0  0  0  0  0  0  0  0  0  0
   17.3042    3.0946    0.0000 H   0  0  0  0  0  0  0  0  0  0  0  0
   14.2740    1.6555    0.0000 H   0  0  0  0  0  0  0  0  0  0  0  0
   14.0717   -1.1563    0.0000 H   0  0  0  0  0  0  0  0  0  0  0  0
   13.8740    0.7619    0.0000 H   0  0  0  0  0  0  0  0  0  0  0  0
   16.1067   -3.9772    0.0000 H   0  0  0  0  0  0  0  0  0  0  0  0
   13.8901   -2.8176    0.0000 H   0  0  0  0  0  0  0  0  0  0  0  0
   15.7120   -2.0097    0.0000 H   0  0  0  0  0  0  0  0  0  0  0  0
   18.7177   -0.5200    0.0000 H   0  0  0  0  0  0  0  0  0  0  0  0
   21.0516   -2.1011    0.0000 H   0  0  0  0  0  0  0  0  0  0  0  0
   19.6671   -0.7587    0.0000 H   0  0  0  0  0  0  0  0  0  0  0  0
   22.0081   -5.4453    0.0000 H   0  0  0  0  0  0  0  0  0  0  0  0
   22.4689   -2.9865    0.0000 H   0  0  0  0  0  0  0  0  0  0  0  0
   20.7068   -3.9176    0.0000 H   0  0  0  0  0  0  0  0  0  0  0  0
   17.6766   -5.3568    0.0000 H   0  0  0  0  0  0  0  0  0  0  0  0
   17.4743   -8.1686    0.0000 H   0  0  0  0  0  0  0  0  0  0  0  0
   17.2766   -6.2504    0.0000 H   0  0  0  0  0  0  0  0  0  0  0  0
   20.6395   -9.1483    0.0000 H   0  0  0  0  0  0  0  0  0  0  0  0
   20.8252   -7.8465    0.0000 H   0  0  0  0  0  0  0  0  0  0  0  0
   19.1146   -9.0220    0.0000 H   0  0  0  0  0  0  0  0  0  0  0  0
   22.1203   -7.5323    0.0000 H   0  0  0  0  0  0  0  0  0  0  0  0
   24.4243   -8.9326    0.0000 H   0  0  0  0  0  0  0  0  0  0  0  0
   23.0697   -7.7710    0.0000 H   0  0  0  0  0  0  0  0  0  0  0  0
   23.0834  -12.1817    0.0000 H   0  0  0  0  0  0  0  0  0  0  0  0
   22.1275  -11.5463    0.0000 H   0  0  0  0  0  0  0  0  0  0  0  0
   26.2896  -10.7412    0.0000 H   0  0  0  0  0  0  0  0  0  0  0  0
   25.1166   -9.6039    0.0000 H   0  0  0  0  0  0  0  0  0  0  0  0
   25.1302  -14.0146    0.0000 H   0  0  0  0  0  0  0  0  0  0  0  0
   23.7757  -12.8529    0.0000 H   0  0  0  0  0  0  0  0  0  0  0  0
   27.1031  -14.3270    0.0000 H   0  0  0  0  0  0  0  0  0  0  0  0
   28.1847  -12.7305    0.0000 H   0  0  0  0  0  0  0  0  0  0  0  0
   26.9818  -11.4124    0.0000 H   0  0  0  0  0  0  0  0  0  0  0  0
   24.1094  -10.9299    0.0000 H   0  0  0  0  0  0  0  0  0  0  0  0
   21.0792  -12.3691    0.0000 H   0  0  0  0  0  0  0  0  0  0  0  0
   20.4290  -14.2578    0.0000 H   0  0  0  0  0  0  0  0  0  0  0  0
   21.4546  -15.5296    0.0000 H   0  0  0  0  0  0  0  0  0  0  0  0
   23.2440  -14.8109    0.0000 H   0  0  0  0  0  0  0  0  0  0  0  0
   25.6565  -14.7970    0.0000 H   0  0  0  0  0  0  0  0  0  0  0  0
   26.1382  -16.7457    0.0000 H   0  0  0  0  0  0  0  0  0  0  0  0
   25.6916  -17.8448    0.0000 H   0  0  0  0  0  0  0  0  0  0  0  0
   23.9871  -18.9052    0.0000 H   0  0  0  0  0  0  0  0  0  0  0  0
   22.8037  -18.8200    0.0000 H   0  0  0  0  0  0  0  0  0  0  0  0
   21.3047  -17.7062    0.0000 H   0  0  0  0  0  0  0  0  0  0  0  0
   21.5800  -14.6050    0.0000 H   0  0  0  0  0  0  0  0  0  0  0  0
  1  2  1  0
  2  3  1  0
  3  4  2  0
  4  5  1  0
  5  6  2  0
  6  7  1  0
  7  8  2  0
  7  9  1  0
  9 10  1  0
 10 11  1  0
 11 12  2  0
  9 13  1  0
 13 14  1  0
 14 15  2  0
 15 16  1  0
 16 17  2  0
 17 18  1  0
 16 19  1  0
 14 20  1  0
 20 21  1  0
 21 22  2  0
 22 23  1  0
 23 24  2  0
 24 25  1  0
 25 26  2  0
 25 27  1  0
  1 28  2  0
  1 29  1  0
 29 30  1  0
 30 31  1  0
 31 32  1  0
 32 33  2  0
 32 34  1  0
 34 35  1  0
 35 36  1  0
 36 37  1  0
 37 38  1  0
 37 39  2  0
 35 40  1  0
 40 41  2  0
 40 42  1  0
 42 43  1  0
 43 44  1  0
 44 45  1  0
 45 46  1  0
 46 47  2  0
 46 48  1  0
 43 49  1  0
 49 50  2  0
 49 51  1  0
 51 52  1  0
 52 53  1  0
 53 54  1  0
 54 55  1  0
 54 56  1  0
 52 57  1  0
 57 58  2  0
 57 59  1  0
 59 60  1  0
 60 61  1  0
 61 62  1  0
 62 63  1  0
 63 64  1  0
 64 65  1  0
 60 66  1  0
 66 67  2  0
 66 68  1  0
 69 68  1  6
 69 70  1  0
 70 71  1  0
 71 72  1  0
 72 73  1  0
 73 74  1  0
 74 75  1  0
 75 76  1  0
 69 77  1  0
 69 78  1  0
 78 79  2  0
 78 80  1  0
 80 81  1  0
 81 82  1  0
 82 83  1  0
 81 84  1  0
 84 85  2  0
 84 86  1  0
 86 87  1  0
 87 88  1  0
 88 89  1  0
 89 90  2  0
 90 91  1  0
 91 92  2  0
 92 93  1  0
 93 94  2  0
 87 95  1  0
 95 96  2  0
 95 97  1  0
 97 98  1  0
 98 99  1  0
 99100  1  0
100101  2  0
101102  1  0
102103  2  0
103104  1  0
104105  2  0
 98106  1  0
106107  2  0
106108  1  0
108109  1  0
109110  1  0
109111  1  0
111112  2  0
111113  1  0
113114  1  0
114115  1  0
115116  1  0
116117  1  0
116118  1  0
114119  1  0
119120  2  0
119121  1  0
121122  1  0
122123  1  0
123124  1  0
124125  1  0
125126  1  0
126127  1  0
127128  2  3
127129  1  0
122130  1  0
130131  2  0
130132  1  0
132133  1  0
133134  1  0
134135  1  0
135136  1  0
136137  1  0
133138  1  0
133139  1  1
139140  2  0
139141  1  0
141142  1  0
142143  1  0
143144  1  0
144145  1  0
145146  1  0
145147  2  0
142148  1  0
148149  2  0
148150  1  0
150151  1  0
151152  1  0
152153  1  0
152154  1  0
154155  1  0
151156  1  0
156157  2  0
156158  1  0
158159  1  0
159160  1  0
160161  1  0
161162  1  0
162163  1  0
163164  2  0
163165  1  0
165166  1  0
166167  1  0
167168  1  0
168169  1  0
169170  2  0
169171  1  0
166172  1  0
172173  2  0
172174  1  0
174175  1  0
175176  1  0
176177  1  0
177178  1  0
177179  1  0
175180  1  0
180181  2  0
180182  1  0
182183  1  0
183184  1  0
184185  1  0
185186  1  0
186187  2  0
186188  1  0
183189  1  0
189190  2  0
189191  1  0
191192  1  0
192193  1  0
193194  1  0
194195  1  0
194196  2  0
192197  1  0
197198  2  0
197199  1  0
199200  1  0
200201  1  0
201202  1  0
202203  1  0
202204  2  0
200205  1  0
205206  2  0
205207  1  0
207208  1  0
208209  1  0
209210  1  0
210211  1  0
211212  2  0
211213  1  0
208214  1  0
214215  2  0
214216  1  0
216217  1  0
217218  1  0
218219  1  0
219220  1  0
220221  1  0
221222  1  0
217223  1  0
223224  2  0
223225  1  0
225226  1  0
226227  1  0
226228  1  0
228229  2  0
228230  1  0
230231  1  0
231232  1  0
232233  1  0
233234  1  0
234235  1  0
235236  2  0
235237  1  0
  8  3  1  0
 94 89  1  0
105100  1  0
162158  1  0
234230  1  0
 11  6  1  0
 18 13  2  0
 76137  2  0
 22  9  1  0
 26 21  1  0
  2238  1  0
  4239  1  0
  5240  1  0
  8241  1  0
 15242  1  0
 17243  1  0
 18244  1  0
 19245  1  0
 23246  1  0
 24247  1  0
 26248  1  0
 27249  1  0
 29250  1  0
 30251  1  0
 30252  1  0
 31253  1  0
 31254  1  0
 34255  1  0
 35256  1  1
 36257  1  0
 36258  1  0
 38259  1  0
 38260  1  0
 42261  1  0
 43262  1  1
 44263  1  0
 44264  1  0
 45265  1  0
 45266  1  0
 51267  1  0
 52268  1  1
 53269  1  0
 53270  1  0
 54271  1  0
 55272  1  0
 55273  1  0
 55274  1  0
 56275  1  0
 56276  1  0
 56277  1  0
 59278  1  0
 60279  1  1
 61280  1  0
 61281  1  0
 62282  1  0
 62283  1  0
 63284  1  0
 63285  1  0
 64286  1  0
 64287  1  0
 65288  1  0
 65289  1  0
 65290  1  0
 68291  1  0
 70292  1  0
 70293  1  0
 71294  1  0
 71295  1  0
 72296  1  0
 72297  1  0
 73298  1  0
 73299  1  0
 74300  1  0
 74301  1  0
 75302  1  0
 75303  1  0
 76304  1  0
 77305  1  0
 77306  1  0
 77307  1  0
 80308  1  0
 81309  1  6
 82310  1  0
 82311  1  0
 83312  1  0
 86313  1  0
 87314  1  6
 88315  1  0
 88316  1  0
 90317  1  0
 91318  1  0
 92319  1  0
 93320  1  0
 94321  1  0
 97322  1  0
 98323  1  6
 99324  1  0
 99325  1  0
101326  1  0
102327  1  0
103328  1  0
104329  1  0
105330  1  0
108331  1  0
109332  1  6
110333  1  0
110334  1  0
110335  1  0
113336  1  0
114337  1  6
115338  1  0
115339  1  0
116340  1  0
117341  1  0
117342  1  0
117343  1  0
118344  1  0
118345  1  0
118346  1  0
121347  1  0
122348  1  6
123349  1  0
123350  1  0
124351  1  0
124352  1  0
125353  1  0
125354  1  0
126355  1  0
128356  1  0
128357  1  0
129358  1  0
129359  1  0
132360  1  0
134361  1  0
134362  1  0
135363  1  0
135364  1  0
136365  1  0
136366  1  0
137367  1  0
138368  1  0
138369  1  0
138370  1  0
141371  1  0
142372  1  1
143373  1  0
143374  1  0
144375  1  0
144376  1  0
146377  1  0
146378  1  0
150379  1  0
151380  1  6
152381  1  1
153382  1  0
153383  1  0
153384  1  0
154385  1  0
154386  1  0
155387  1  0
155388  1  0
155389  1  0
159390  1  0
159391  1  0
160392  1  0
160393  1  0
161394  1  0
161395  1  0
162396  1  0
165397  1  0
166398  1  1
167399  1  0
167400  1  0
168401  1  0
168402  1  0
174403  1  0
175404  1  6
176405  1  0
176406  1  0
177407  1  0
178408  1  0
178409  1  0
178410  1  0
179411  1  0
179412  1  0
179413  1  0
182414  1  0
183415  1  1
184416  1  0
184417  1  0
185418  1  0
185419  1  0
191420  1  0
192421  1  6
193422  1  0
193423  1  0
195424  1  0
195425  1  0
199426  1  0
200427  1  1
201428  1  0
201429  1  0
203430  1  0
203431  1  0
207432  1  0
208433  1  6
209434  1  0
209435  1  0
210436  1  0
210437  1  0
216438  1  0
217439  1  1
218440  1  0
218441  1  0
219442  1  0
219443  1  0
220444  1  0
220445  1  0
221446  1  0
221447  1  0
222448  1  0
222449  1  0
222450  1  0
225451  1  0
226452  1  6
227453  1  0
227454  1  0
227455  1  0
231456  1  0
231457  1  0
232458  1  0
232459  1  0
233460  1  0
233461  1  0
234462  1  0
M  CHG  8  48  -1  65   1 128   1 171  -1 188  -1 213  -1 222   1 237  -1
M  END
