
     RDKit          2D

344351  0  0  0  0  0  0  0  0999 V2000
   37.3786   -1.7105    0.0000 C   0  0  0  0  0  0  0  0  0  0  0  0
   38.6738   -0.9539    0.0000 N   0  0  0  0  0  0  0  0  0  0  0  0
   39.9766   -1.6972    0.0000 C   0  0  0  0  0  0  0  0  0  0  0  0
   39.9844   -3.1972    0.0000 C   0  0  0  0  0  0  0  0  0  0  0  0
   41.2872   -3.9405    0.0000 C   0  0  0  0  0  0  0  0  0  0  0  0
   42.5824   -3.1838    0.0000 C   0  0  0  0  0  0  0  0  0  0  0  0
   42.5747   -1.6838    0.0000 C   0  0  0  0  0  0  0  0  0  0  0  0
   41.2718   -0.9405    0.0000 C   0  0  0  0  0  0  0  0  0  0  0  0
   43.9989   -1.2130    0.0000 C   0  0  0  0  0  0  0  0  0  0  0  0
   44.8868   -2.4219    0.0000 O   0  0  0  0  0  0  0  0  0  0  0  0
   44.0114   -3.6400    0.0000 C   0  0  0  0  0  0  0  0  0  0  0  0
   44.4822   -5.0642    0.0000 O   0  0  0  0  0  0  0  0  0  0  0  0
   45.4645   -0.8936    0.0000 C   0  0  0  0  0  0  0  0  0  0  0  0
   45.9207    0.5354    0.0000 C   0  0  0  0  0  0  0  0  0  0  0  0
   47.3862    0.8548    0.0000 C   0  0  0  0  0  0  0  0  0  0  0  0
   48.3957   -0.2547    0.0000 C   0  0  0  0  0  0  0  0  0  0  0  0
   47.9395   -1.6837    0.0000 C   0  0  0  0  0  0  0  0  0  0  0  0
   46.4739   -2.0031    0.0000 C   0  0  0  0  0  0  0  0  0  0  0  0
   49.8613    0.0647    0.0000 O   0  0  0  0  0  0  0  0  0  0  0  0
   44.9112    1.6449    0.0000 O   0  0  0  0  0  0  0  0  0  0  0  0
   43.4456    1.3255    0.0000 C   0  0  0  0  0  0  0  0  0  0  0  0
   42.9895   -0.1034    0.0000 C   0  0  0  0  0  0  0  0  0  0  0  0
   41.7367    0.2440    0.0000 C   0  0  0  0  0  0  0  0  0  0  0  0
   41.1984    0.8358    0.0000 C   0  0  0  0  0  0  0  0  0  0  0  0
   41.4417    1.5979    0.0000 C   0  0  0  0  0  0  0  0  0  0  0  0
   42.2233    1.7682    0.0000 C   0  0  0  0  0  0  0  0  0  0  0  0
   39.9612    3.2252    0.0000 O   0  0  0  0  0  0  0  0  0  0  0  0
   37.3863   -3.2105    0.0000 S   0  0  0  0  0  0  0  0  0  0  0  0
   36.0757   -0.9672    0.0000 N   0  0  0  0  0  0  0  0  0  0  0  0
   34.7806   -1.7239    0.0000 C   0  0  0  0  0  0  0  0  0  0  0  0
   33.4777   -0.9806    0.0000 C   0  0  0  0  0  0  0  0  0  0  0  0
   32.1825   -1.7373    0.0000 O   0  0  0  0  0  0  0  0  0  0  0  0
   30.8796   -0.9940    0.0000 C   0  0  0  0  0  0  0  0  0  0  0  0
   29.5845   -1.7506    0.0000 C   0  0  0  0  0  0  0  0  0  0  0  0
   28.2816   -1.0073    0.0000 O   0  0  0  0  0  0  0  0  0  0  0  0
   26.9864   -1.7640    0.0000 C   0  0  0  0  0  0  0  0  0  0  0  0
   25.6836   -1.0207    0.0000 C   0  0  0  0  0  0  0  0  0  0  0  0
   24.3884   -1.7774    0.0000 O   0  0  0  0  0  0  0  0  0  0  0  0
   23.0855   -1.0340    0.0000 C   0  0  0  0  0  0  0  0  0  0  0  0
   21.7904   -1.7907    0.0000 C   0  0  0  0  0  0  0  0  0  0  0  0
   20.4875   -1.0474    0.0000 O   0  0  0  0  0  0  0  0  0  0  0  0
   19.1923   -1.8041    0.0000 C   0  0  0  0  0  0  0  0  0  0  0  0
   17.8894   -1.0608    0.0000 C   0  0  0  0  0  0  0  0  0  0  0  0
   16.5943   -1.8174    0.0000 O   0  0  0  0  0  0  0  0  0  0  0  0
   15.2914   -1.0741    0.0000 C   0  0  0  0  0  0  0  0  0  0  0  0
   13.9962   -1.8308    0.0000 C   0  0  0  0  0  0  0  0  0  0  0  0
   12.6933   -1.0875    0.0000 O   0  0  0  0  0  0  0  0  0  0  0  0
   11.3982   -1.8442    0.0000 C   0  0  0  0  0  0  0  0  0  0  0  0
   10.0953   -1.1009    0.0000 C   0  0  0  0  0  0  0  0  0  0  0  0
    8.8001   -1.8575    0.0000 C   0  0  0  0  0  0  0  0  0  0  0  0
    8.9970   -2.6300    0.0000 O   0  0  0  0  0  0  0  0  0  0  0  0
    7.4973   -1.1142    0.0000 N   0  0  0  0  0  0  0  0  0  0  0  0
    6.2021   -1.8709    0.0000 C   0  0  0  0  0  0  0  0  0  0  0  0
    7.1722   -3.0150    0.0000 C   0  0  0  0  0  0  0  0  0  0  0  0
    8.6480   -2.7469    0.0000 C   0  0  0  0  0  0  0  0  0  0  0  0
    9.6181   -3.8910    0.0000 N   0  0  0  0  0  0  0  0  0  0  0  0
    9.4805   -1.4991    0.0000 O   0  0  0  0  0  0  0  0  0  0  0  0
    4.7262   -2.1390    0.0000 C   0  0  0  0  0  0  0  0  0  0  0  0
    4.5772   -3.6315    0.0000 O   0  0  0  0  0  0  0  0  0  0  0  0
    3.7562   -0.9949    0.0000 N   0  0  0  0  0  0  0  0  0  0  0  0
    2.2803   -1.2629    0.0000 C   0  0  0  0  0  0  0  0  0  0  0  0
    2.8006   -2.6698    0.0000 C   0  0  0  0  0  0  0  0  0  0  0  0
    4.2791   -2.9227    0.0000 C   0  0  0  0  0  0  0  0  0  0  0  0
    4.7994   -4.3296    0.0000 C   0  0  0  0  0  0  0  0  0  0  0  0
    6.2361   -4.7608    0.0000 N   0  0  0  0  0  0  0  0  0  0  0  0
    3.8411   -5.4836    0.0000 O   0  0  0  0  0  0  0  0  0  0  0  0
    0.8018   -1.0101    0.0000 C   0  0  0  0  0  0  0  0  0  0  0  0
    0.1512   -2.3617    0.0000 O   0  0  0  0  0  0  0  0  0  0  0  0
    0.2815    0.3968    0.0000 N   0  0  0  0  0  0  0  0  0  0  0  0
   -1.1970    0.6497    0.0000 C   0  0  0  0  0  0  0  0  0  0  0  0
   -1.1893   -0.8503    0.0000 C   0  0  0  0  0  0  0  0  0  0  0  0
    0.1136   -1.5936    0.0000 C   0  0  0  0  0  0  0  0  0  0  0  0
    0.1213   -3.0936    0.0000 C   0  0  0  0  0  0  0  0  0  0  0  0
    1.5921   -1.8465    0.0000 C   0  0  0  0  0  0  0  0  0  0  0  0
   -2.4999    1.3930    0.0000 C   0  0  0  0  0  0  0  0  0  0  0  0
   -3.5735    0.3454    0.0000 O   0  0  0  0  0  0  0  0  0  0  0  0
   -2.5076    2.8930    0.0000 N   0  0  0  0  0  0  0  0  0  0  0  0
   -3.8105    3.6363    0.0000 C   0  0  0  0  0  0  0  0  0  0  0  0
   -3.8979    2.1388    0.0000 C   0  0  0  0  0  0  0  0  0  0  0  0
   -4.2672    0.6850    0.0000 C   0  0  0  0  0  0  0  0  0  0  0  0
   -4.9049   -0.6727    0.0000 C   0  0  0  0  0  0  0  0  0  0  0  0
   -5.7880   -1.8852    0.0000 C   0  0  0  0  0  0  0  0  0  0  0  0
   -6.8847   -2.9086    0.0000 C   0  0  0  0  0  0  0  0  0  0  0  0
   -8.1552   -3.7060    0.0000 C   0  0  0  0  0  0  0  0  0  0  0  0
   -9.5536   -4.2485    0.0000 C   0  0  0  0  0  0  0  0  0  0  0  0
   -2.5659    4.4736    0.0000 C   0  0  0  0  0  0  0  0  0  0  0  0
   -4.0080    5.1232    0.0000 C   0  0  0  0  0  0  0  0  0  0  0  0
   -2.5987    5.6368    0.0000 O   0  0  0  0  0  0  0  0  0  0  0  0
   -4.4834    6.5459    0.0000 N   0  0  0  0  0  0  0  0  0  0  0  0
   -5.2194    7.8529    0.0000 C   0  0  0  0  0  0  0  0  0  0  0  0
   -4.6251    9.2301    0.0000 C   0  0  0  0  0  0  0  0  0  0  0  0
   -3.1352    9.4041    0.0000 C   0  0  0  0  0  0  0  0  0  0  0  0
   -2.5409   10.7813    0.0000 C   0  0  0  0  0  0  0  0  0  0  0  0
   -1.6757    9.0579    0.0000 C   0  0  0  0  0  0  0  0  0  0  0  0
   -6.1895    8.9970    0.0000 C   0  0  0  0  0  0  0  0  0  0  0  0
   -5.2816   10.1910    0.0000 O   0  0  0  0  0  0  0  0  0  0  0  0
   -7.3586    9.9368    0.0000 N   0  0  0  0  0  0  0  0  0  0  0  0
   -8.6844   10.6384    0.0000 C   0  0  0  0  0  0  0  0  0  0  0  0
   -8.9290   12.1183    0.0000 C   0  0  0  0  0  0  0  0  0  0  0  0
   -7.7697   13.0702    0.0000 O   0  0  0  0  0  0  0  0  0  0  0  0
  -10.1190   11.0764    0.0000 C   0  0  0  0  0  0  0  0  0  0  0  0
  -10.0007   12.5718    0.0000 O   0  0  0  0  0  0  0  0  0  0  0  0
  -11.6106   11.2350    0.0000 N   0  0  0  0  0  0  0  0  0  0  0  0
  -13.1053   11.1085    0.0000 C   0  0  0  0  0  0  0  0  0  0  0  0
  -14.1111   12.2212    0.0000 C   0  0  0  0  0  0  0  0  0  0  0  0
  -13.6504   13.6487    0.0000 C   0  0  0  0  0  0  0  0  0  0  0  0
  -12.1838   13.9634    0.0000 C   0  0  0  0  0  0  0  0  0  0  0  0
  -11.7231   15.3909    0.0000 C   0  0  0  0  0  0  0  0  0  0  0  0
  -12.7290   16.5037    0.0000 C   0  0  0  0  0  0  0  0  0  0  0  0
  -14.1956   16.1889    0.0000 C   0  0  0  0  0  0  0  0  0  0  0  0
  -14.6563   14.7614    0.0000 C   0  0  0  0  0  0  0  0  0  0  0  0
  -14.5489   10.7013    0.0000 C   0  0  0  0  0  0  0  0  0  0  0  0
  -15.2579   12.0232    0.0000 O   0  0  0  0  0  0  0  0  0  0  0  0
  -15.8895   10.0283    0.0000 N   0  0  0  0  0  0  0  0  0  0  0  0
  -17.0784    9.1138    0.0000 C   0  0  0  0  0  0  0  0  0  0  0  0
  -18.5262    9.5060    0.0000 C   0  0  0  0  0  0  0  0  0  0  0  0
  -18.9104   10.9560    0.0000 C   0  0  0  0  0  0  0  0  0  0  0  0
  -17.8468   12.0137    0.0000 C   0  0  0  0  0  0  0  0  0  0  0  0
  -18.2310   13.4637    0.0000 C   0  0  0  0  0  0  0  0  0  0  0  0
  -19.6788   13.8559    0.0000 C   0  0  0  0  0  0  0  0  0  0  0  0
  -20.7424   12.7982    0.0000 C   0  0  0  0  0  0  0  0  0  0  0  0
  -20.3582   11.3483    0.0000 C   0  0  0  0  0  0  0  0  0  0  0  0
  -18.0728    7.9907    0.0000 C   0  0  0  0  0  0  0  0  0  0  0  0
  -19.3839    8.7195    0.0000 O   0  0  0  0  0  0  0  0  0  0  0  0
  -18.8367    6.6998    0.0000 N   0  0  0  0  0  0  0  0  0  0  0  0
  -19.3425    5.2877    0.0000 C   0  0  0  0  0  0  0  0  0  0  0  0
  -20.7725    4.8349    0.0000 C   0  0  0  0  0  0  0  0  0  0  0  0
  -19.5719    3.8053    0.0000 C   0  0  0  0  0  0  0  0  0  0  0  0
  -21.0688    3.7096    0.0000 O   0  0  0  0  0  0  0  0  0  0  0  0
  -19.5166    2.3063    0.0000 N   0  0  0  0  0  0  0  0  0  0  0  0
  -19.1786    0.8449    0.0000 C   0  0  0  0  0  0  0  0  0  0  0  0
  -20.1368   -0.3091    0.0000 C   0  0  0  0  0  0  0  0  0  0  0  0
  -21.6154   -0.0562    0.0000 C   0  0  0  0  0  0  0  0  0  0  0  0
  -22.5736   -1.2102    0.0000 C   0  0  0  0  0  0  0  0  0  0  0  0
  -24.0522   -0.9574    0.0000 N   0  0  0  0  0  0  0  0  0  0  0  0
  -25.0104   -2.1114    0.0000 C   0  0  0  0  0  0  0  0  0  0  0  0
  -26.4890   -1.8585    0.0000 N   0  0  0  0  0  0  0  0  0  0  0  0
  -24.4902   -3.5183    0.0000 N   0  0  0  0  0  0  0  0  0  0  0  0
  -18.5701   -0.5262    0.0000 C   0  0  0  0  0  0  0  0  0  0  0  0
  -19.7777   -1.4160    0.0000 O   0  0  0  0  0  0  0  0  0  0  0  0
  -17.7132   -1.7573    0.0000 N   0  0  0  0  0  0  0  0  0  0  0  0
  -16.6388   -2.8040    0.0000 C   0  0  0  0  0  0  0  0  0  0  0  0
  -15.3856   -3.6284    0.0000 C   0  0  0  0  0  0  0  0  0  0  0  0
  -13.9992   -4.2008    0.0000 C   0  0  0  0  0  0  0  0  0  0  0  0
  -12.5294   -4.5005    0.0000 C   0  0  0  0  0  0  0  0  0  0  0  0
  -11.0295   -4.5166    0.0000 C   0  0  0  0  0  0  0  0  0  0  0  0
  -18.0537   -3.3019    0.0000 C   0  0  0  0  0  0  0  0  0  0  0  0
  -16.8210   -4.2929    0.0000 C   0  0  0  0  0  0  0  0  0  0  0  0
  -15.8766   -5.4583    0.0000 O   0  0  0  0  0  0  0  0  0  0  0  0
  -18.2015   -4.8795    0.0000 N   0  0  0  0  0  0  0  0  0  0  0  0
  -18.3838   -6.3684    0.0000 C   0  0  0  0  0  0  0  0  0  0  0  0
  -18.0458   -7.8298    0.0000 C   0  0  0  0  0  0  0  0  0  0  0  0
  -19.1424   -8.8532    0.0000 C   0  0  0  0  0  0  0  0  0  0  0  0
  -18.8044  -10.3146    0.0000 O   0  0  0  0  0  0  0  0  0  0  0  0
  -20.6404   -8.7754    0.0000 O   0  0  0  0  0  0  0  0  0  0  0  0
  -19.7643   -6.9550    0.0000 C   0  0  0  0  0  0  0  0  0  0  0  0
  -20.9626   -6.0527    0.0000 O   0  0  0  0  0  0  0  0  0  0  0  0
  -19.9465   -8.4439    0.0000 N   0  0  0  0  0  0  0  0  0  0  0  0
  -21.3271   -9.0305    0.0000 C   0  0  0  0  0  0  0  0  0  0  0  0
  -22.8250   -9.1096    0.0000 C   0  0  0  0  0  0  0  0  0  0  0  0
  -23.5054  -10.4464    0.0000 C   0  0  0  0  0  0  0  0  0  0  0  0
  -25.0034  -10.5254    0.0000 C   0  0  0  0  0  0  0  0  0  0  0  0
  -25.8417  -11.7693    0.0000 N   0  0  0  0  0  0  0  0  0  0  0  0
  -25.8208   -9.2678    0.0000 O   0  0  0  0  0  0  0  0  0  0  0  0
  -21.5093  -10.5194    0.0000 C   0  0  0  0  0  0  0  0  0  0  0  0
  -20.3110  -11.4217    0.0000 O   0  0  0  0  0  0  0  0  0  0  0  0
  -22.8898  -11.1060    0.0000 N   0  0  0  0  0  0  0  0  0  0  0  0
  -23.0721  -12.5949    0.0000 C   0  0  0  0  0  0  0  0  0  0  0  0
  -22.7341  -14.0563    0.0000 C   0  0  0  0  0  0  0  0  0  0  0  0
  -23.8307  -15.0798    0.0000 C   0  0  0  0  0  0  0  0  0  0  0  0
  -21.9166  -15.3140    0.0000 C   0  0  0  0  0  0  0  0  0  0  0  0
  -20.4187  -15.2350    0.0000 C   0  0  0  0  0  0  0  0  0  0  0  0
  -24.4526  -13.1815    0.0000 C   0  0  0  0  0  0  0  0  0  0  0  0
  -24.8150  -14.6371    0.0000 O   0  0  0  0  0  0  0  0  0  0  0  0
  -25.7519  -12.4321    0.0000 O   0  0  0  0  0  0  0  0  0  0  0  0
   38.4833    0.5340    0.0000 H   0  0  0  0  0  0  0  0  0  0  0  0
   38.6892   -3.9538    0.0000 H   0  0  0  0  0  0  0  0  0  0  0  0
   41.2950   -5.4405    0.0000 H   0  0  0  0  0  0  0  0  0  0  0  0
   40.9014    0.5130    0.0000 H   0  0  0  0  0  0  0  0  0  0  0  0
   47.8424    2.2838    0.0000 H   0  0  0  0  0  0  0  0  0  0  0  0
   48.9489   -2.7932    0.0000 H   0  0  0  0  0  0  0  0  0  0  0  0
   46.0177   -3.4320    0.0000 H   0  0  0  0  0  0  0  0  0  0  0  0
   50.8707   -1.0449    0.0000 H   0  0  0  0  0  0  0  0  0  0  0  0
   41.0677   -1.8518    0.0000 H   0  0  0  0  0  0  0  0  0  0  0  0
   39.0208    0.5483    0.0000 H   0  0  0  0  0  0  0  0  0  0  0  0
   42.8924    3.8640    0.0000 H   0  0  0  0  0  0  0  0  0  0  0  0
   40.4174    4.6541    0.0000 H   0  0  0  0  0  0  0  0  0  0  0  0
   36.0680    0.5327    0.0000 H   0  0  0  0  0  0  0  0  0  0  0  0
   35.7506   -2.8680    0.0000 H   0  0  0  0  0  0  0  0  0  0  0  0
   33.8223   -2.8779    0.0000 H   0  0  0  0  0  0  0  0  0  0  0  0
   34.4359    0.1734    0.0000 H   0  0  0  0  0  0  0  0  0  0  0  0
   32.6543    0.2732    0.0000 H   0  0  0  0  0  0  0  0  0  0  0  0
   31.6901    0.2683    0.0000 H   0  0  0  0  0  0  0  0  0  0  0  0
   29.9096    0.1501    0.0000 H   0  0  0  0  0  0  0  0  0  0  0  0
   30.5546   -2.8947    0.0000 H   0  0  0  0  0  0  0  0  0  0  0  0
   28.7740   -3.0128    0.0000 H   0  0  0  0  0  0  0  0  0  0  0  0
   27.8098   -3.0178    0.0000 H   0  0  0  0  0  0  0  0  0  0  0  0
   26.0282   -2.9180    0.0000 H   0  0  0  0  0  0  0  0  0  0  0  0
   26.6418    0.1333    0.0000 H   0  0  0  0  0  0  0  0  0  0  0  0
   24.8602    0.2331    0.0000 H   0  0  0  0  0  0  0  0  0  0  0  0
   23.8960    0.2282    0.0000 H   0  0  0  0  0  0  0  0  0  0  0  0
   22.1154    0.1100    0.0000 H   0  0  0  0  0  0  0  0  0  0  0  0
   22.7604   -2.9348    0.0000 H   0  0  0  0  0  0  0  0  0  0  0  0
   20.9799   -3.0529    0.0000 H   0  0  0  0  0  0  0  0  0  0  0  0
   20.0157   -3.0579    0.0000 H   0  0  0  0  0  0  0  0  0  0  0  0
   18.2341   -2.9581    0.0000 H   0  0  0  0  0  0  0  0  0  0  0  0
   18.8477    0.0932    0.0000 H   0  0  0  0  0  0  0  0  0  0  0  0
   17.0660    0.1930    0.0000 H   0  0  0  0  0  0  0  0  0  0  0  0
   16.1018    0.1881    0.0000 H   0  0  0  0  0  0  0  0  0  0  0  0
   14.3213    0.0700    0.0000 H   0  0  0  0  0  0  0  0  0  0  0  0
   14.9663   -2.9749    0.0000 H   0  0  0  0  0  0  0  0  0  0  0  0
   13.1858   -3.0930    0.0000 H   0  0  0  0  0  0  0  0  0  0  0  0
   12.2216   -3.0980    0.0000 H   0  0  0  0  0  0  0  0  0  0  0  0
   10.5877   -3.1064    0.0000 H   0  0  0  0  0  0  0  0  0  0  0  0
   11.0536    0.0531    0.0000 H   0  0  0  0  0  0  0  0  0  0  0  0
    9.1252    0.0432    0.0000 H   0  0  0  0  0  0  0  0  0  0  0  0
    7.4896    0.3858    0.0000 H   0  0  0  0  0  0  0  0  0  0  0  0
    5.6818   -0.4640    0.0000 H   0  0  0  0  0  0  0  0  0  0  0  0
    7.6925   -4.4219    0.0000 H   0  0  0  0  0  0  0  0  0  0  0  0
    5.9789   -3.9239    0.0000 H   0  0  0  0  0  0  0  0  0  0  0  0
   11.1156   -3.8048    0.0000 H   0  0  0  0  0  0  0  0  0  0  0  0
    9.1123   -5.3032    0.0000 H   0  0  0  0  0  0  0  0  0  0  0  0
    4.2619    0.4173    0.0000 H   0  0  0  0  0  0  0  0  0  0  0  0
    2.4555    0.2268    0.0000 H   0  0  0  0  0  0  0  0  0  0  0  0
    2.8083   -4.1698    0.0000 H   0  0  0  0  0  0  0  0  0  0  0  0
    1.4335   -3.2870    0.0000 H   0  0  0  0  0  0  0  0  0  0  0  0
    5.7550   -2.6546    0.0000 H   0  0  0  0  0  0  0  0  0  0  0  0
    4.6346   -1.4654    0.0000 H   0  0  0  0  0  0  0  0  0  0  0  0
    6.7982   -5.9893    0.0000 H   0  0  0  0  0  0  0  0  0  0  0  0
    7.5289   -3.7100    0.0000 H   0  0  0  0  0  0  0  0  0  0  0  0
    1.2398    1.5508    0.0000 H   0  0  0  0  0  0  0  0  0  0  0  0
   -0.6912    2.0618    0.0000 H   0  0  0  0  0  0  0  0  0  0  0  0
   -1.8634   -2.1903    0.0000 H   0  0  0  0  0  0  0  0  0  0  0  0
   -2.6678   -0.5974    0.0000 H   0  0  0  0  0  0  0  0  0  0  0  0
    0.9460   -0.3458    0.0000 H   0  0  0  0  0  0  0  0  0  0  0  0
    1.2056   -4.1301    0.0000 H   0  0  0  0  0  0  0  0  0  0  0  0
   -0.3845   -4.5057    0.0000 H   0  0  0  0  0  0  0  0  0  0  0  0
   -1.3770   -3.0228    0.0000 H   0  0  0  0  0  0  0  0  0  0  0  0
    2.1124   -3.2534    0.0000 H   0  0  0  0  0  0  0  0  0  0  0  0
    3.0890   -1.9435    0.0000 H   0  0  0  0  0  0  0  0  0  0  0  0
    1.4016   -0.3586    0.0000 H   0  0  0  0  0  0  0  0  0  0  0  0
   -1.1299    3.4861    0.0000 H   0  0  0  0  0  0  0  0  0  0  0  0
   -2.4165    2.3740    0.0000 H   0  0  0  0  0  0  0  0  0  0  0  0
   -2.8868    1.0309    0.0000 H   0  0  0  0  0  0  0  0  0  0  0  0
   -2.7852    0.4531    0.0000 H   0  0  0  0  0  0  0  0  0  0  0  0
   -3.3339   -0.4893    0.0000 H   0  0  0  0  0  0  0  0  0  0  0  0
   -3.4052   -0.6412    0.0000 H   0  0  0  0  0  0  0  0  0  0  0  0
   -4.0538   -1.9079    0.0000 H   0  0  0  0  0  0  0  0  0  0  0  0
   -4.3513   -2.3164    0.0000 H   0  0  0  0  0  0  0  0  0  0  0  0
   -5.1861   -3.2591    0.0000 H   0  0  0  0  0  0  0  0  0  0  0  0
   -5.5556   -3.6039    0.0000 H   0  0  0  0  0  0  0  0  0  0  0  0
   -6.5536   -4.3716    0.0000 H   0  0  0  0  0  0  0  0  0  0  0  0
   -6.9817   -4.6402    0.0000 H   0  0  0  0  0  0  0  0  0  0  0  0
   -8.2901   -5.1999    0.0000 H   0  0  0  0  0  0  0  0  0  0  0  0
   -9.1465   -5.6922    0.0000 H   0  0  0  0  0  0  0  0  0  0  0  0
   -1.1482    3.9836    0.0000 H   0  0  0  0  0  0  0  0  0  0  0  0
   -1.5416    5.5693    0.0000 H   0  0  0  0  0  0  0  0  0  0  0  0
   -3.3143    5.7736    0.0000 H   0  0  0  0  0  0  0  0  0  0  0  0
   -3.0484    6.9827    0.0000 H   0  0  0  0  0  0  0  0  0  0  0  0
   -3.7230    7.7488    0.0000 H   0  0  0  0  0  0  0  0  0  0  0  0
   -4.5377   10.7276    0.0000 H   0  0  0  0  0  0  0  0  0  0  0  0
   -5.9575    9.9192    0.0000 H   0  0  0  0  0  0  0  0  0  0  0  0
   -2.8577    7.9300    0.0000 H   0  0  0  0  0  0  0  0  0  0  0  0
   -1.0833   11.1355    0.0000 H   0  0  0  0  0  0  0  0  0  0  0  0
   -2.4535   12.2788    0.0000 H   0  0  0  0  0  0  0  0  0  0  0  0
   -3.9473   11.3028    0.0000 H   0  0  0  0  0  0  0  0  0  0  0  0
   -0.5209   10.0152    0.0000 H   0  0  0  0  0  0  0  0  0  0  0  0
   -0.4226    8.2335    0.0000 H   0  0  0  0  0  0  0  0  0  0  0  0
   -2.2700    7.6807    0.0000 H   0  0  0  0  0  0  0  0  0  0  0  0
   -6.5341   11.1899    0.0000 H   0  0  0  0  0  0  0  0  0  0  0  0
   -7.4670   11.5148    0.0000 H   0  0  0  0  0  0  0  0  0  0  0  0
   -9.5002   13.5053    0.0000 H   0  0  0  0  0  0  0  0  0  0  0  0
  -10.4224   11.9776    0.0000 H   0  0  0  0  0  0  0  0  0  0  0  0
   -8.0143   14.5501    0.0000 H   0  0  0  0  0  0  0  0  0  0  0  0
  -11.4118   12.7218    0.0000 H   0  0  0  0  0  0  0  0  0  0  0  0
  -12.5549   12.5039    0.0000 H   0  0  0  0  0  0  0  0  0  0  0  0
  -15.3415   13.0792    0.0000 H   0  0  0  0  0  0  0  0  0  0  0  0
  -15.2914   11.2954    0.0000 H   0  0  0  0  0  0  0  0  0  0  0  0
  -11.0498   12.9816    0.0000 H   0  0  0  0  0  0  0  0  0  0  0  0
  -10.2565   15.7057    0.0000 H   0  0  0  0  0  0  0  0  0  0  0  0
  -12.2683   17.9312    0.0000 H   0  0  0  0  0  0  0  0  0  0  0  0
  -15.2015   17.3017    0.0000 H   0  0  0  0  0  0  0  0  0  0  0  0
  -16.1229   14.4467    0.0000 H   0  0  0  0  0  0  0  0  0  0  0  0
  -16.5261   11.3865    0.0000 H   0  0  0  0  0  0  0  0  0  0  0  0
  -17.3699   10.5852    0.0000 H   0  0  0  0  0  0  0  0  0  0  0  0
  -20.0252    9.5626    0.0000 H   0  0  0  0  0  0  0  0  0  0  0  0
  -19.0186    8.0892    0.0000 H   0  0  0  0  0  0  0  0  0  0  0  0
  -16.3620   11.8008    0.0000 H   0  0  0  0  0  0  0  0  0  0  0  0
  -17.1674   14.5214    0.0000 H   0  0  0  0  0  0  0  0  0  0  0  0
  -20.0630   15.3059    0.0000 H   0  0  0  0  0  0  0  0  0  0  0  0
  -22.1902   13.1905    0.0000 H   0  0  0  0  0  0  0  0  0  0  0  0
  -21.4218   10.2906    0.0000 H   0  0  0  0  0  0  0  0  0  0  0  0
  -20.1944    7.3375    0.0000 H   0  0  0  0  0  0  0  0  0  0  0  0
  -20.3832    6.3679    0.0000 H   0  0  0  0  0  0  0  0  0  0  0  0
  -21.8796    5.8470    0.0000 H   0  0  0  0  0  0  0  0  0  0  0  0
  -22.0641    4.0721    0.0000 H   0  0  0  0  0  0  0  0  0  0  0  0
  -20.4207    3.3768    0.0000 H   0  0  0  0  0  0  0  0  0  0  0  0
  -21.0165    2.2915    0.0000 H   0  0  0  0  0  0  0  0  0  0  0  0
  -20.5850    1.3664    0.0000 H   0  0  0  0  0  0  0  0  0  0  0  0
  -20.6426   -1.7213    0.0000 H   0  0  0  0  0  0  0  0  0  0  0  0
  -19.0525   -1.3456    0.0000 H   0  0  0  0  0  0  0  0  0  0  0  0
  -22.9183    0.6871    0.0000 H   0  0  0  0  0  0  0  0  0  0  0  0
  -21.4663    1.4363    0.0000 H   0  0  0  0  0  0  0  0  0  0  0  0
  -23.0794   -2.6224    0.0000 H   0  0  0  0  0  0  0  0  0  0  0  0
  -21.3711   -2.1068    0.0000 H   0  0  0  0  0  0  0  0  0  0  0  0
  -24.5724    0.4495    0.0000 H   0  0  0  0  0  0  0  0  0  0  0  0
  -27.4472   -3.0125    0.0000 H   0  0  0  0  0  0  0  0  0  0  0  0
  -27.0092   -0.4516    0.0000 H   0  0  0  0  0  0  0  0  0  0  0  0
  -25.4484   -4.6723    0.0000 H   0  0  0  0  0  0  0  0  0  0  0  0
  -23.0116   -3.7711    0.0000 H   0  0  0  0  0  0  0  0  0  0  0  0
  -18.9670   -2.5807    0.0000 H   0  0  0  0  0  0  0  0  0  0  0  0
  -15.2828   -5.1249    0.0000 H   0  0  0  0  0  0  0  0  0  0  0  0
  -16.4592   -4.6760    0.0000 H   0  0  0  0  0  0  0  0  0  0  0  0
  -13.7946   -5.6868    0.0000 H   0  0  0  0  0  0  0  0  0  0  0  0
  -14.8551   -5.4326    0.0000 H   0  0  0  0  0  0  0  0  0  0  0  0
  -11.8777   -5.8515    0.0000 H   0  0  0  0  0  0  0  0  0  0  0  0
  -13.2994   -5.7878    0.0000 H   0  0  0  0  0  0  0  0  0  0  0  0
  -10.9029   -6.0112    0.0000 H   0  0  0  0  0  0  0  0  0  0  0  0
  -18.6786   -4.6655    0.0000 H   0  0  0  0  0  0  0  0  0  0  0  0
  -19.5536   -3.2858    0.0000 H   0  0  0  0  0  0  0  0  0  0  0  0
  -18.6492   -1.9251    0.0000 H   0  0  0  0  0  0  0  0  0  0  0  0
  -19.5009   -4.1300    0.0000 H   0  0  0  0  0  0  0  0  0  0  0  0
  -16.8858   -6.2893    0.0000 H   0  0  0  0  0  0  0  0  0  0  0  0
  -17.2283   -9.0875    0.0000 H   0  0  0  0  0  0  0  0  0  0  0  0
  -16.6652   -7.2432    0.0000 H   0  0  0  0  0  0  0  0  0  0  0  0
  -19.0022   -9.6093    0.0000 H   0  0  0  0  0  0  0  0  0  0  0  0
  -21.6650   -7.5691    0.0000 H   0  0  0  0  0  0  0  0  0  0  0  0
  -24.2596   -8.6716    0.0000 H   0  0  0  0  0  0  0  0  0  0  0  0
  -22.6427   -7.6207    0.0000 H   0  0  0  0  0  0  0  0  0  0  0  0
  -23.6877  -11.9353    0.0000 H   0  0  0  0  0  0  0  0  0  0  0  0
  -22.4445  -11.5067    0.0000 H   0  0  0  0  0  0  0  0  0  0  0  0
  -27.1817  -11.9413    0.0000 H   0  0  0  0  0  0  0  0  0  0  0  0
  -25.4153  -13.3798    0.0000 H   0  0  0  0  0  0  0  0  0  0  0  0
  -24.2708  -10.5205    0.0000 H   0  0  0  0  0  0  0  0  0  0  0  0
  -21.5741  -12.5158    0.0000 H   0  0  0  0  0  0  0  0  0  0  0  0
  -21.4353  -13.3058    0.0000 H   0  0  0  0  0  0  0  0  0  0  0  0
  -23.6734  -16.5715    0.0000 H   0  0  0  0  0  0  0  0  0  0  0  0
  -25.2112  -15.6664    0.0000 H   0  0  0  0  0  0  0  0  0  0  0  0
  -25.1430  -14.3532    0.0000 H   0  0  0  0  0  0  0  0  0  0  0  0
  -21.5786  -16.7755    0.0000 H   0  0  0  0  0  0  0  0  0  0  0  0
  -23.2154  -16.0646    0.0000 H   0  0  0  0  0  0  0  0  0  0  0  0
  -19.6013  -16.4927    0.0000 H   0  0  0  0  0  0  0  0  0  0  0  0
  -19.0382  -14.6483    0.0000 H   0  0  0  0  0  0  0  0  0  0  0  0
  -20.5760  -13.7432    0.0000 H   0  0  0  0  0  0  0  0  0  0  0  0
  1  2  1  0
  2  3  1  0
  3  4  2  0
  4  5  1  0
  5  6  2  0
  6  7  1  0
  7  8  2  0
  7  9  1  0
  9 10  1  0
 10 11  1  0
 11 12  2  0
  9 13  1  0
 13 14  1  0
 14 15  2  0
 15 16  1  0
 16 17  2  0
 17 18  1  0
 16 19  1  0
 14 20  1  0
 20 21  1  0
 21 22  2  0
 22 23  1  0
 23 24  2  0
 24 25  1  0
 25 26  2  0
 25 27  1  0
  1 28  2  0
  1 29  1  0
 29 30  1  0
 30 31  1  0
 31 32  1  0
 32 33  1  0
 33 34  1  0
 34 35  1  0
 35 36  1  0
 36 37  1  0
 37 38  1  0
 38 39  1  0
 39 40  1  0
 40 41  1  0
 41 42  1  0
 42 43  1  0
 43 44  1  0
 44 45  1  0
 45 46  1  0
 46 47  1  0
 47 48  1  0
 48 49  1  0
 49 50  1  0
 50 51  2  0
 50 52  1  0
 52 53  1  0
 53 54  1  0
 54 55  1  0
 55 56  1  0
 55 57  2  0
 53 58  1  0
 58 59  2  0
 58 60  1  0
 60 61  1  0
 61 62  1  0
 62 63  1  0
 63 64  1  0
 64 65  1  0
 64 66  2  0
 61 67  1  0
 67 68  2  0
 67 69  1  0
 69 70  1  0
 70 71  1  0
 71 72  1  0
 72 73  1  0
 72 74  1  0
 70 75  1  0
 75 76  2  0
 75 77  1  0
 78 77  1  6
 78 79  1  0
 79 80  1  0
 80 81  1  0
 81 82  1  0
 82 83  1  0
 83 84  1  0
 84 85  1  0
 78 86  1  0
 78 87  1  0
 87 88  2  0
 87 89  1  0
 89 90  1  0
 90 91  1  0
 91 92  1  0
 92 93  1  0
 92 94  1  0
 90 95  1  0
 95 96  2  0
 95 97  1  0
 97 98  1  0
 98 99  1  0
 99100  1  0
 98101  1  0
101102  2  0
101103  1  0
103104  1  0
104105  1  0
105106  1  0
106107  2  0
107108  1  0
108109  2  0
109110  1  0
110111  2  0
104112  1  0
112113  2  0
112114  1  0
114115  1  0
115116  1  0
116117  1  0
117118  2  0
118119  1  0
119120  2  0
120121  1  0
121122  2  0
115123  1  0
123124  2  0
123125  1  0
125126  1  0
126127  1  0
126128  1  0
128129  2  0
128130  1  0
130131  1  0
131132  1  0
132133  1  0
133134  1  0
134135  1  0
135136  1  0
136137  2  3
136138  1  0
131139  1  0
139140  2  0
139141  1  0
141142  1  0
142143  1  0
143144  1  0
144145  1  0
145146  1  0
142147  1  0
142148  1  1
148149  2  0
148150  1  0
150151  1  0
151152  1  0
152153  1  0
153154  2  0
153155  1  0
151156  1  0
156157  2  0
156158  1  0
158159  1  0
159160  1  0
160161  1  0
161162  1  0
162163  1  0
162164  2  0
159165  1  0
165166  2  0
165167  1  0
167168  1  0
168169  1  0
169170  1  0
169171  1  0
171172  1  0
168173  1  0
173174  2  0
173175  1  0
  8  3  1  0
111106  1  0
122117  1  0
 11  6  1  0
 18 13  2  0
 85146  2  0
 22  9  1  0
 26 21  1  0
  2176  1  0
  4177  1  0
  5178  1  0
  8179  1  0
 15180  1  0
 17181  1  0
 18182  1  0
 19183  1  0
 23184  1  0
 24185  1  0
 26186  1  0
 27187  1  0
 29188  1  0
 30189  1  0
 30190  1  0
 31191  1  0
 31192  1  0
 33193  1  0
 33194  1  0
 34195  1  0
 34196  1  0
 36197  1  0
 36198  1  0
 37199  1  0
 37200  1  0
 39201  1  0
 39202  1  0
 40203  1  0
 40204  1  0
 42205  1  0
 42206  1  0
 43207  1  0
 43208  1  0
 45209  1  0
 45210  1  0
 46211  1  0
 46212  1  0
 48213  1  0
 48214  1  0
 49215  1  0
 49216  1  0
 52217  1  0
 53218  1  1
 54219  1  0
 54220  1  0
 56221  1  0
 56222  1  0
 60223  1  0
 61224  1  1
 62225  1  0
 62226  1  0
 63227  1  0
 63228  1  0
 65229  1  0
 65230  1  0
 69231  1  0
 70232  1  1
 71233  1  0
 71234  1  0
 72235  1  0
 73236  1  0
 73237  1  0
 73238  1  0
 74239  1  0
 74240  1  0
 74241  1  0
 77242  1  0
 79243  1  0
 79244  1  0
 80245  1  0
 80246  1  0
 81247  1  0
 81248  1  0
 82249  1  0
 82250  1  0
 83251  1  0
 83252  1  0
 84253  1  0
 84254  1  0
 85255  1  0
 86256  1  0
 86257  1  0
 86258  1  0
 89259  1  0
 90260  1  6
 91261  1  0
 91262  1  0
 92263  1  0
 93264  1  0
 93265  1  0
 93266  1  0
 94267  1  0
 94268  1  0
 94269  1  0
 97270  1  0
 98271  1  6
 99272  1  0
 99273  1  0
100274  1  0
103275  1  0
104276  1  6
105277  1  0
105278  1  0
107279  1  0
108280  1  0
109281  1  0
110282  1  0
111283  1  0
114284  1  0
115285  1  6
116286  1  0
116287  1  0
118288  1  0
119289  1  0
120290  1  0
121291  1  0
122292  1  0
125293  1  0
126294  1  6
127295  1  0
127296  1  0
127297  1  0
130298  1  0
131299  1  6
132300  1  0
132301  1  0
133302  1  0
133303  1  0
134304  1  0
134305  1  0
135306  1  0
137307  1  0
137308  1  0
138309  1  0
138310  1  0
141311  1  0
143312  1  0
143313  1  0
144314  1  0
144315  1  0
145316  1  0
145317  1  0
146318  1  0
147319  1  0
147320  1  0
147321  1  0
150322  1  0
151323  1  1
152324  1  0
152325  1  0
158326  1  0
159327  1  6
160328  1  0
160329  1  0
161330  1  0
161331  1  0
163332  1  0
163333  1  0
167334  1  0
168335  1  1
169336  1  1
170337  1  0
170338  1  0
170339  1  0
171340  1  0
171341  1  0
172342  1  0
172343  1  0
172344  1  0
M  CHG  3 137   1 155  -1 175  -1
M  END
