
     RDKit          2D

454463  0  0  0  0  0  0  0  0999 V2000
   32.4150   -5.4447    0.0000 C   0  0  0  0  0  0  0  0  0  0  0  0
   33.8429   -4.9852    0.0000 N   0  0  0  0  0  0  0  0  0  0  0  0
   34.9548   -5.9920    0.0000 C   0  0  0  0  0  0  0  0  0  0  0  0
   34.6388   -7.4584    0.0000 C   0  0  0  0  0  0  0  0  0  0  0  0
   35.7506   -8.4652    0.0000 C   0  0  0  0  0  0  0  0  0  0  0  0
   37.1785   -8.0057    0.0000 C   0  0  0  0  0  0  0  0  0  0  0  0
   37.4945   -6.5394    0.0000 C   0  0  0  0  0  0  0  0  0  0  0  0
   36.3827   -5.5326    0.0000 C   0  0  0  0  0  0  0  0  0  0  0  0
   38.9868   -6.3868    0.0000 C   0  0  0  0  0  0  0  0  0  0  0  0
   39.5930   -7.7588    0.0000 O   0  0  0  0  0  0  0  0  0  0  0  0
   38.4754   -8.7594    0.0000 C   0  0  0  0  0  0  0  0  0  0  0  0
   38.6280  -10.2516    0.0000 O   0  0  0  0  0  0  0  0  0  0  0  0
   40.4868   -6.3910    0.0000 C   0  0  0  0  0  0  0  0  0  0  0  0
   41.2404   -5.0941    0.0000 C   0  0  0  0  0  0  0  0  0  0  0  0
   42.7404   -5.0984    0.0000 C   0  0  0  0  0  0  0  0  0  0  0  0
   43.4867   -6.3995    0.0000 C   0  0  0  0  0  0  0  0  0  0  0  0
   42.7331   -7.6964    0.0000 C   0  0  0  0  0  0  0  0  0  0  0  0
   41.2331   -7.6922    0.0000 C   0  0  0  0  0  0  0  0  0  0  0  0
   44.9867   -6.4038    0.0000 O   0  0  0  0  0  0  0  0  0  0  0  0
   40.4941   -3.7930    0.0000 O   0  0  0  0  0  0  0  0  0  0  0  0
   38.9941   -3.7887    0.0000 C   0  0  0  0  0  0  0  0  0  0  0  0
   38.2404   -5.0857    0.0000 C   0  0  0  0  0  0  0  0  0  0  0  0
   37.0921   -4.4762    0.0000 C   0  0  0  0  0  0  0  0  0  0  0  0
   36.6941   -3.7823    0.0000 C   0  0  0  0  0  0  0  0  0  0  0  0
   37.0961   -3.0906    0.0000 C   0  0  0  0  0  0  0  0  0  0  0  0
   37.8961   -3.0928    0.0000 C   0  0  0  0  0  0  0  0  0  0  0  0
   36.0014   -1.1822    0.0000 O   0  0  0  0  0  0  0  0  0  0  0  0
   32.0990   -6.9110    0.0000 S   0  0  0  0  0  0  0  0  0  0  0  0
   31.3031   -4.4379    0.0000 N   0  0  0  0  0  0  0  0  0  0  0  0
   29.8752   -4.8974    0.0000 C   0  0  0  0  0  0  0  0  0  0  0  0
   28.7634   -3.8905    0.0000 C   0  0  0  0  0  0  0  0  0  0  0  0
   27.3355   -4.3500    0.0000 C   0  0  0  0  0  0  0  0  0  0  0  0
   27.3611   -5.1468    0.0000 O   0  0  0  0  0  0  0  0  0  0  0  0
   26.2236   -3.3432    0.0000 N   0  0  0  0  0  0  0  0  0  0  0  0
   24.7957   -3.8027    0.0000 C   0  0  0  0  0  0  0  0  0  0  0  0
   25.4962   -5.1291    0.0000 C   0  0  0  0  0  0  0  0  0  0  0  0
   26.9951   -5.1856    0.0000 C   0  0  0  0  0  0  0  0  0  0  0  0
   27.6956   -6.5121    0.0000 N   0  0  0  0  0  0  0  0  0  0  0  0
   28.0771   -4.1468    0.0000 O   0  0  0  0  0  0  0  0  0  0  0  0
   23.2968   -3.7461    0.0000 C   0  0  0  0  0  0  0  0  0  0  0  0
   22.8293   -5.1714    0.0000 O   0  0  0  0  0  0  0  0  0  0  0  0
   22.5963   -2.4197    0.0000 N   0  0  0  0  0  0  0  0  0  0  0  0
   21.0974   -2.3631    0.0000 C   0  0  0  0  0  0  0  0  0  0  0  0
   21.3019   -3.8491    0.0000 C   0  0  0  0  0  0  0  0  0  0  0  0
   22.6911   -4.4149    0.0000 C   0  0  0  0  0  0  0  0  0  0  0  0
   22.8957   -5.9009    0.0000 C   0  0  0  0  0  0  0  0  0  0  0  0
   24.2055   -6.6318    0.0000 N   0  0  0  0  0  0  0  0  0  0  0  0
   21.7111   -6.8210    0.0000 O   0  0  0  0  0  0  0  0  0  0  0  0
   19.7082   -1.7973    0.0000 C   0  0  0  0  0  0  0  0  0  0  0  0
   18.7814   -2.9767    0.0000 O   0  0  0  0  0  0  0  0  0  0  0  0
   19.5036   -0.3113    0.0000 N   0  0  0  0  0  0  0  0  0  0  0  0
   18.1145    0.2546    0.0000 C   0  0  0  0  0  0  0  0  0  0  0  0
   17.7984   -1.2118    0.0000 C   0  0  0  0  0  0  0  0  0  0  0  0
   18.9103   -2.2186    0.0000 C   0  0  0  0  0  0  0  0  0  0  0  0
   18.5943   -3.6849    0.0000 C   0  0  0  0  0  0  0  0  0  0  0  0
   20.2995   -2.7844    0.0000 C   0  0  0  0  0  0  0  0  0  0  0  0
   17.0026    1.2614    0.0000 C   0  0  0  0  0  0  0  0  0  0  0  0
   15.7283    0.4701    0.0000 O   0  0  0  0  0  0  0  0  0  0  0  0
   17.3186    2.7277    0.0000 N   0  0  0  0  0  0  0  0  0  0  0  0
   16.2067    3.7346    0.0000 C   0  0  0  0  0  0  0  0  0  0  0  0
   15.7983    2.2912    0.0000 C   0  0  0  0  0  0  0  0  0  0  0  0
   15.1242    0.9513    0.0000 C   0  0  0  0  0  0  0  0  0  0  0  0
   14.2086   -0.2369    0.0000 C   0  0  0  0  0  0  0  0  0  0  0  0
   13.0847   -1.2303    0.0000 C   0  0  0  0  0  0  0  0  0  0  0  0
   11.7932   -1.9931    0.0000 C   0  0  0  0  0  0  0  0  0  0  0  0
   10.3806   -2.4977    0.0000 C   0  0  0  0  0  0  0  0  0  0  0  0
    8.8980   -2.7258    0.0000 C   0  0  0  0  0  0  0  0  0  0  0  0
   17.6026    4.2837    0.0000 C   0  0  0  0  0  0  0  0  0  0  0  0
   16.3345    5.2291    0.0000 C   0  0  0  0  0  0  0  0  0  0  0  0
   17.8215    5.4267    0.0000 O   0  0  0  0  0  0  0  0  0  0  0  0
   16.1772    6.7209    0.0000 N   0  0  0  0  0  0  0  0  0  0  0  0
   15.7405    8.1559    0.0000 C   0  0  0  0  0  0  0  0  0  0  0  0
   16.6178    9.3725    0.0000 C   0  0  0  0  0  0  0  0  0  0  0  0
   18.1102    9.2209    0.0000 C   0  0  0  0  0  0  0  0  0  0  0  0
   18.9876   10.4376    0.0000 C   0  0  0  0  0  0  0  0  0  0  0  0
   20.4799   10.2860    0.0000 N   0  0  0  0  0  0  0  0  0  0  0  0
   21.3573   11.5026    0.0000 C   0  0  0  0  0  0  0  0  0  0  0  0
   22.8496   11.3511    0.0000 N   0  0  0  0  0  0  0  0  0  0  0  0
   20.7424   12.8708    0.0000 N   0  0  0  0  0  0  0  0  0  0  0  0
   15.0400    9.4823    0.0000 C   0  0  0  0  0  0  0  0  0  0  0  0
   16.1841   10.4523    0.0000 O   0  0  0  0  0  0  0  0  0  0  0  0
   14.1012   10.6521    0.0000 N   0  0  0  0  0  0  0  0  0  0  0  0
   12.9579   11.6232    0.0000 C   0  0  0  0  0  0  0  0  0  0  0  0
   13.0383   13.1210    0.0000 C   0  0  0  0  0  0  0  0  0  0  0  0
   14.3756   13.8004    0.0000 O   0  0  0  0  0  0  0  0  0  0  0  0
   11.6515   12.3603    0.0000 C   0  0  0  0  0  0  0  0  0  0  0  0
   12.0895   13.7950    0.0000 O   0  0  0  0  0  0  0  0  0  0  0  0
   10.2292   12.8369    0.0000 N   0  0  0  0  0  0  0  0  0  0  0  0
    8.7425   13.0357    0.0000 C   0  0  0  0  0  0  0  0  0  0  0  0
    8.0003   14.3392    0.0000 C   0  0  0  0  0  0  0  0  0  0  0  0
    8.7581   15.6338    0.0000 C   0  0  0  0  0  0  0  0  0  0  0  0
   10.2580   15.6248    0.0000 C   0  0  0  0  0  0  0  0  0  0  0  0
   11.0158   16.9193    0.0000 C   0  0  0  0  0  0  0  0  0  0  0  0
   10.2736   18.2228    0.0000 C   0  0  0  0  0  0  0  0  0  0  0  0
    8.7736   18.2318    0.0000 C   0  0  0  0  0  0  0  0  0  0  0  0
    8.0159   16.9373    0.0000 C   0  0  0  0  0  0  0  0  0  0  0  0
    7.2450   12.9496    0.0000 C   0  0  0  0  0  0  0  0  0  0  0  0
    6.8378   14.3933    0.0000 O   0  0  0  0  0  0  0  0  0  0  0  0
    5.7908   12.5816    0.0000 N   0  0  0  0  0  0  0  0  0  0  0  0
    4.4326   11.9450    0.0000 C   0  0  0  0  0  0  0  0  0  0  0  0
    3.1035   12.6403    0.0000 C   0  0  0  0  0  0  0  0  0  0  0  0
    3.0411   14.1390    0.0000 C   0  0  0  0  0  0  0  0  0  0  0  0
    4.3078   14.9424    0.0000 C   0  0  0  0  0  0  0  0  0  0  0  0
    4.2454   16.4411    0.0000 C   0  0  0  0  0  0  0  0  0  0  0  0
    2.9163   17.1364    0.0000 C   0  0  0  0  0  0  0  0  0  0  0  0
    1.6496   16.3331    0.0000 C   0  0  0  0  0  0  0  0  0  0  0  0
    1.7120   14.8344    0.0000 C   0  0  0  0  0  0  0  0  0  0  0  0
    3.2193   11.0629    0.0000 C   0  0  0  0  0  0  0  0  0  0  0  0
    2.0963   12.0573    0.0000 O   0  0  0  0  0  0  0  0  0  0  0  0
    2.1950    9.9671    0.0000 N   0  0  0  0  0  0  0  0  0  0  0  0
    1.3965    8.6973    0.0000 C   0  0  0  0  0  0  0  0  0  0  0  0
   -0.0975    8.5637    0.0000 C   0  0  0  0  0  0  0  0  0  0  0  0
    0.8528    7.2993    0.0000 C   0  0  0  0  0  0  0  0  0  0  0  0
   -0.6296    7.5287    0.0000 O   0  0  0  0  0  0  0  0  0  0  0  0
    0.5835    5.8237    0.0000 N   0  0  0  0  0  0  0  0  0  0  0  0
    0.5983    4.3238    0.0000 C   0  0  0  0  0  0  0  0  0  0  0  0
   -0.5863    3.4036    0.0000 C   0  0  0  0  0  0  0  0  0  0  0  0
   -1.9755    3.9695    0.0000 C   0  0  0  0  0  0  0  0  0  0  0  0
   -3.1601    3.0493    0.0000 C   0  0  0  0  0  0  0  0  0  0  0  0
   -3.0874    4.9763    0.0000 C   0  0  0  0  0  0  0  0  0  0  0  0
    0.8967    2.8538    0.0000 C   0  0  0  0  0  0  0  0  0  0  0  0
   -0.4744    2.2453    0.0000 O   0  0  0  0  0  0  0  0  0  0  0  0
    1.4679    1.4668    0.0000 N   0  0  0  0  0  0  0  0  0  0  0  0
    2.2913    0.2130    0.0000 C   0  0  0  0  0  0  0  0  0  0  0  0
    3.3370   -0.8624    0.0000 C   0  0  0  0  0  0  0  0  0  0  0  0
    4.5674   -1.7204    0.0000 C   0  0  0  0  0  0  0  0  0  0  0  0
    5.9380   -2.3300    0.0000 C   0  0  0  0  0  0  0  0  0  0  0  0
    7.3991   -2.6692    0.0000 C   0  0  0  0  0  0  0  0  0  0  0  0
    0.8022    0.0320    0.0000 C   0  0  0  0  0  0  0  0  0  0  0  0
    1.7922   -1.2016    0.0000 C   0  0  0  0  0  0  0  0  0  0  0  0
    2.4629   -2.5432    0.0000 O   0  0  0  0  0  0  0  0  0  0  0  0
    0.3176   -1.4766    0.0000 N   0  0  0  0  0  0  0  0  0  0  0  0
   -0.1815   -2.8911    0.0000 C   0  0  0  0  0  0  0  0  0  0  0  0
   -0.1667   -4.3911    0.0000 C   0  0  0  0  0  0  0  0  0  0  0  0
   -1.4583   -5.1538    0.0000 C   0  0  0  0  0  0  0  0  0  0  0  0
   -1.4435   -6.6538    0.0000 O   0  0  0  0  0  0  0  0  0  0  0  0
   -2.9042   -4.7547    0.0000 O   0  0  0  0  0  0  0  0  0  0  0  0
   -1.6561   -3.1662    0.0000 C   0  0  0  0  0  0  0  0  0  0  0  0
   -2.6315   -2.0267    0.0000 O   0  0  0  0  0  0  0  0  0  0  0  0
   -2.1552   -4.5807    0.0000 N   0  0  0  0  0  0  0  0  0  0  0  0
   -3.6297   -4.8557    0.0000 C   0  0  0  0  0  0  0  0  0  0  0  0
   -5.1094   -4.6099    0.0000 C   0  0  0  0  0  0  0  0  0  0  0  0
   -6.0622   -5.7684    0.0000 C   0  0  0  0  0  0  0  0  0  0  0  0
   -7.5419   -5.5225    0.0000 C   0  0  0  0  0  0  0  0  0  0  0  0
   -8.6289   -6.5563    0.0000 N   0  0  0  0  0  0  0  0  0  0  0  0
   -8.0689   -4.1181    0.0000 O   0  0  0  0  0  0  0  0  0  0  0  0
   -4.1288   -6.2703    0.0000 C   0  0  0  0  0  0  0  0  0  0  0  0
   -3.1534   -7.4098    0.0000 O   0  0  0  0  0  0  0  0  0  0  0  0
   -5.6034   -6.5453    0.0000 N   0  0  0  0  0  0  0  0  0  0  0  0
   -6.1025   -7.9599    0.0000 C   0  0  0  0  0  0  0  0  0  0  0  0
   -6.0877   -9.4598    0.0000 C   0  0  0  0  0  0  0  0  0  0  0  0
   -7.1563  -10.5124    0.0000 C   0  0  0  0  0  0  0  0  0  0  0  0
   -5.5608  -10.8642    0.0000 C   0  0  0  0  0  0  0  0  0  0  0  0
   -4.0811  -11.1101    0.0000 C   0  0  0  0  0  0  0  0  0  0  0  0
   -7.5771   -8.2349    0.0000 C   0  0  0  0  0  0  0  0  0  0  0  0
   -8.6842   -7.2228    0.0000 O   0  0  0  0  0  0  0  0  0  0  0  0
   -8.0762   -9.6494    0.0000 N   0  0  0  0  0  0  0  0  0  0  0  0
   -7.2251  -10.8846    0.0000 C   0  0  0  0  0  0  0  0  0  0  0  0
   -8.1369  -12.0757    0.0000 C   0  0  0  0  0  0  0  0  0  0  0  0
   -9.5515  -11.5766    0.0000 C   0  0  0  0  0  0  0  0  0  0  0  0
   -9.5139  -10.0771    0.0000 C   0  0  0  0  0  0  0  0  0  0  0  0
  -11.0091  -10.1965    0.0000 C   0  0  0  0  0  0  0  0  0  0  0  0
  -11.8137  -11.4625    0.0000 O   0  0  0  0  0  0  0  0  0  0  0  0
  -11.8602   -8.9613    0.0000 N   0  0  0  0  0  0  0  0  0  0  0  0
  -13.3554   -9.0807    0.0000 C   0  0  0  0  0  0  0  0  0  0  0  0
  -14.7196   -9.7043    0.0000 C   0  0  0  0  0  0  0  0  0  0  0  0
  -15.9418   -8.8346    0.0000 C   0  0  0  0  0  0  0  0  0  0  0  0
  -17.3060   -9.4582    0.0000 C   0  0  0  0  0  0  0  0  0  0  0  0
  -18.6251   -8.7440    0.0000 O   0  0  0  0  0  0  0  0  0  0  0  0
  -17.4481  -10.9515    0.0000 O   0  0  0  0  0  0  0  0  0  0  0  0
  -14.2064   -7.8454    0.0000 C   0  0  0  0  0  0  0  0  0  0  0  0
  -13.5622   -6.4908    0.0000 O   0  0  0  0  0  0  0  0  0  0  0  0
  -15.7017   -7.9648    0.0000 N   0  0  0  0  0  0  0  0  0  0  0  0
  -16.5527   -6.7296    0.0000 C   0  0  0  0  0  0  0  0  0  0  0  0
  -16.9299   -5.2778    0.0000 C   0  0  0  0  0  0  0  0  0  0  0  0
  -15.8612   -4.2252    0.0000 C   0  0  0  0  0  0  0  0  0  0  0  0
  -16.2385   -2.7735    0.0000 C   0  0  0  0  0  0  0  0  0  0  0  0
  -14.4970   -3.6016    0.0000 C   0  0  0  0  0  0  0  0  0  0  0  0
  -18.0479   -6.8490    0.0000 C   0  0  0  0  0  0  0  0  0  0  0  0
  -18.8525   -8.1150    0.0000 O   0  0  0  0  0  0  0  0  0  0  0  0
  -18.8989   -5.6138    0.0000 N   0  0  0  0  0  0  0  0  0  0  0  0
  -20.3942   -5.7332    0.0000 C   0  0  0  0  0  0  0  0  0  0  0  0
  -21.7584   -6.3568    0.0000 C   0  0  0  0  0  0  0  0  0  0  0  0
  -22.9806   -5.4871    0.0000 C   0  0  0  0  0  0  0  0  0  0  0  0
  -24.3448   -6.1107    0.0000 C   0  0  0  0  0  0  0  0  0  0  0  0
  -25.6639   -5.3965    0.0000 O   0  0  0  0  0  0  0  0  0  0  0  0
  -24.4869   -7.6040    0.0000 O   0  0  0  0  0  0  0  0  0  0  0  0
  -21.2452   -4.4980    0.0000 C   0  0  0  0  0  0  0  0  0  0  0  0
  -20.6010   -3.1434    0.0000 O   0  0  0  0  0  0  0  0  0  0  0  0
  -22.7404   -4.6174    0.0000 N   0  0  0  0  0  0  0  0  0  0  0  0
  -23.5915   -3.3822    0.0000 C   0  0  0  0  0  0  0  0  0  0  0  0
  -23.9687   -1.9304    0.0000 C   0  0  0  0  0  0  0  0  0  0  0  0
  -22.9000   -0.8778    0.0000 C   0  0  0  0  0  0  0  0  0  0  0  0
  -23.2772    0.5740    0.0000 N   0  0  0  0  0  0  0  0  0  0  0  0
  -21.4541   -1.2770    0.0000 O   0  0  0  0  0  0  0  0  0  0  0  0
  -25.0867   -3.5016    0.0000 C   0  0  0  0  0  0  0  0  0  0  0  0
  -25.8912   -4.7675    0.0000 O   0  0  0  0  0  0  0  0  0  0  0  0
  -25.9377   -2.2663    0.0000 N   0  0  0  0  0  0  0  0  0  0  0  0
  -27.4330   -2.3857    0.0000 C   0  0  0  0  0  0  0  0  0  0  0  0
  -28.7972   -3.0093    0.0000 C   0  0  0  0  0  0  0  0  0  0  0  0
  -30.0194   -2.1397    0.0000 C   0  0  0  0  0  0  0  0  0  0  0  0
  -31.3836   -2.7633    0.0000 N   0  0  0  0  0  0  0  0  0  0  0  0
  -30.2429   -0.6564    0.0000 O   0  0  0  0  0  0  0  0  0  0  0  0
  -28.2840   -1.1505    0.0000 C   0  0  0  0  0  0  0  0  0  0  0  0
  -27.6398    0.2041    0.0000 O   0  0  0  0  0  0  0  0  0  0  0  0
  -29.7792   -1.2699    0.0000 N   0  0  0  0  0  0  0  0  0  0  0  0
  -30.6303   -0.0347    0.0000 C   0  0  0  0  0  0  0  0  0  0  0  0
  -31.0075    1.4171    0.0000 C   0  0  0  0  0  0  0  0  0  0  0  0
  -32.4534    1.8163    0.0000 C   0  0  0  0  0  0  0  0  0  0  0  0
  -32.8306    3.2681    0.0000 C   0  0  0  0  0  0  0  0  0  0  0  0
  -34.2171    3.8406    0.0000 O   0  0  0  0  0  0  0  0  0  0  0  0
  -31.7619    4.3207    0.0000 O   0  0  0  0  0  0  0  0  0  0  0  0
  -32.1255   -0.1541    0.0000 C   0  0  0  0  0  0  0  0  0  0  0  0
  -32.9300   -1.4201    0.0000 O   0  0  0  0  0  0  0  0  0  0  0  0
  -32.9765    1.0811    0.0000 N   0  0  0  0  0  0  0  0  0  0  0  0
  -34.4718    0.9617    0.0000 C   0  0  0  0  0  0  0  0  0  0  0  0
  -35.8360    0.3381    0.0000 C   0  0  0  0  0  0  0  0  0  0  0  0
  -37.0582    1.2078    0.0000 C   0  0  0  0  0  0  0  0  0  0  0  0
  -38.4224    0.5842    0.0000 C   0  0  0  0  0  0  0  0  0  0  0  0
  -39.6445    1.4539    0.0000 C   0  0  0  0  0  0  0  0  0  0  0  0
  -41.0088    0.8303    0.0000 N   0  0  0  0  0  0  0  0  0  0  0  0
  -35.3228    2.1969    0.0000 C   0  0  0  0  0  0  0  0  0  0  0  0
  -34.8485    3.6200    0.0000 O   0  0  0  0  0  0  0  0  0  0  0  0
  -36.8180    2.0776    0.0000 N   0  0  0  0  0  0  0  0  0  0  0  0
  -37.6690    3.3128    0.0000 C   0  0  0  0  0  0  0  0  0  0  0  0
  -37.8665    4.7997    0.0000 C   0  0  0  0  0  0  0  0  0  0  0  0
  -39.1643    3.1934    0.0000 C   0  0  0  0  0  0  0  0  0  0  0  0
  -40.1171    2.0349    0.0000 O   0  0  0  0  0  0  0  0  0  0  0  0
  -40.0153    4.4286    0.0000 N   0  0  0  0  0  0  0  0  0  0  0  0
  -41.5148    4.4661    0.0000 C   0  0  0  0  0  0  0  0  0  0  0  0
  -41.9425    5.9039    0.0000 C   0  0  0  0  0  0  0  0  0  0  0  0
  -40.7073    6.7549    0.0000 C   0  0  0  0  0  0  0  0  0  0  0  0
  -39.5162    5.8431    0.0000 C   0  0  0  0  0  0  0  0  0  0  0  0
  -38.7339    7.1230    0.0000 C   0  0  0  0  0  0  0  0  0  0  0  0
  -37.2344    7.0854    0.0000 O   0  0  0  0  0  0  0  0  0  0  0  0
  -39.2852    8.5180    0.0000 O   0  0  0  0  0  0  0  0  0  0  0  0
   33.9778   -3.4913    0.0000 H   0  0  0  0  0  0  0  0  0  0  0  0
   33.2109   -7.9179    0.0000 H   0  0  0  0  0  0  0  0  0  0  0  0
   35.4346   -9.9316    0.0000 H   0  0  0  0  0  0  0  0  0  0  0  0
   36.3345   -4.0333    0.0000 H   0  0  0  0  0  0  0  0  0  0  0  0
   43.4941   -3.8015    0.0000 H   0  0  0  0  0  0  0  0  0  0  0  0
   43.4794   -8.9976    0.0000 H   0  0  0  0  0  0  0  0  0  0  0  0
   40.4794   -8.9891    0.0000 H   0  0  0  0  0  0  0  0  0  0  0  0
   45.7331   -7.7049    0.0000 H   0  0  0  0  0  0  0  0  0  0  0  0
   35.9868   -6.3783    0.0000 H   0  0  0  0  0  0  0  0  0  0  0  0
   34.5058   -3.5932    0.0000 H   0  0  0  0  0  0  0  0  0  0  0  0
   39.0014   -1.1907    0.0000 H   0  0  0  0  0  0  0  0  0  0  0  0
   36.7551    0.1147    0.0000 H   0  0  0  0  0  0  0  0  0  0  0  0
   31.6191   -2.9715    0.0000 H   0  0  0  0  0  0  0  0  0  0  0  0
   30.5757   -6.2238    0.0000 H   0  0  0  0  0  0  0  0  0  0  0  0
   28.8116   -5.9550    0.0000 H   0  0  0  0  0  0  0  0  0  0  0  0
   29.9480   -2.9704    0.0000 H   0  0  0  0  0  0  0  0  0  0  0  0
   28.0629   -2.5641    0.0000 H   0  0  0  0  0  0  0  0  0  0  0  0
   26.5396   -1.8768    0.0000 H   0  0  0  0  0  0  0  0  0  0  0  0
   24.5911   -2.3167    0.0000 H   0  0  0  0  0  0  0  0  0  0  0  0
   25.7007   -6.6151    0.0000 H   0  0  0  0  0  0  0  0  0  0  0  0
   24.1349   -5.7592    0.0000 H   0  0  0  0  0  0  0  0  0  0  0  0
   29.1764   -6.7509    0.0000 H   0  0  0  0  0  0  0  0  0  0  0  0
   26.8971   -7.7819    0.0000 H   0  0  0  0  0  0  0  0  0  0  0  0
   23.3948   -1.1499    0.0000 H   0  0  0  0  0  0  0  0  0  0  0  0
   21.5898   -0.9462    0.0000 H   0  0  0  0  0  0  0  0  0  0  0  0
   20.9859   -5.3154    0.0000 H   0  0  0  0  0  0  0  0  0  0  0  0
   19.8339   -4.1569    0.0000 H   0  0  0  0  0  0  0  0  0  0  0  0
   24.1901   -4.4715    0.0000 H   0  0  0  0  0  0  0  0  0  0  0  0
   23.3526   -3.0686    0.0000 H   0  0  0  0  0  0  0  0  0  0  0  0
   24.4894   -7.9527    0.0000 H   0  0  0  0  0  0  0  0  0  0  0  0
   25.6945   -5.8847    0.0000 H   0  0  0  0  0  0  0  0  0  0  0  0
   20.6883    0.6089    0.0000 H   0  0  0  0  0  0  0  0  0  0  0  0
   18.9129    1.5244    0.0000 H   0  0  0  0  0  0  0  0  0  0  0  0
   16.8511   -2.3748    0.0000 H   0  0  0  0  0  0  0  0  0  0  0  0
   16.4093   -0.6459    0.0000 H   0  0  0  0  0  0  0  0  0  0  0  0
   19.9923   -1.1797    0.0000 H   0  0  0  0  0  0  0  0  0  0  0  0
   19.4295   -4.9309    0.0000 H   0  0  0  0  0  0  0  0  0  0  0  0
   17.7958   -4.9548    0.0000 H   0  0  0  0  0  0  0  0  0  0  0  0
   17.1465   -3.2927    0.0000 H   0  0  0  0  0  0  0  0  0  0  0  0
   20.5041   -4.2704    0.0000 H   0  0  0  0  0  0  0  0  0  0  0  0
   21.7402   -3.2020    0.0000 H   0  0  0  0  0  0  0  0  0  0  0  0
   20.4344   -1.2905    0.0000 H   0  0  0  0  0  0  0  0  0  0  0  0
   18.7918    3.0098    0.0000 H   0  0  0  0  0  0  0  0  0  0  0  0
   17.2956    2.2013    0.0000 H   0  0  0  0  0  0  0  0  0  0  0  0
   16.5467    0.9913    0.0000 H   0  0  0  0  0  0  0  0  0  0  0  0
   16.5213    0.4052    0.0000 H   0  0  0  0  0  0  0  0  0  0  0  0
   15.7822   -0.3967    0.0000 H   0  0  0  0  0  0  0  0  0  0  0  0
   15.6798   -0.5296    0.0000 H   0  0  0  0  0  0  0  0  0  0  0  0
   14.7733   -1.6266    0.0000 H   0  0  0  0  0  0  0  0  0  0  0  0
   14.3946   -1.9613    0.0000 H   0  0  0  0  0  0  0  0  0  0  0  0
   13.3762   -2.7017    0.0000 H   0  0  0  0  0  0  0  0  0  0  0  0
   12.9410   -2.9587    0.0000 H   0  0  0  0  0  0  0  0  0  0  0  0
   11.8009   -3.4931    0.0000 H   0  0  0  0  0  0  0  0  0  0  0  0
   11.3249   -3.6631    0.0000 H   0  0  0  0  0  0  0  0  0  0  0  0
    9.9266   -3.9273    0.0000 H   0  0  0  0  0  0  0  0  0  0  0  0
    8.9842   -4.2233    0.0000 H   0  0  0  0  0  0  0  0  0  0  0  0
   18.8812    3.4994    0.0000 H   0  0  0  0  0  0  0  0  0  0  0  0
   18.8392    5.1327    0.0000 H   0  0  0  0  0  0  0  0  0  0  0  0
   17.1522    5.7145    0.0000 H   0  0  0  0  0  0  0  0  0  0  0  0
   17.6727    6.8378    0.0000 H   0  0  0  0  0  0  0  0  0  0  0  0
   17.1792    7.7314    0.0000 H   0  0  0  0  0  0  0  0  0  0  0  0
   17.0262   10.8158    0.0000 H   0  0  0  0  0  0  0  0  0  0  0  0
   15.4654   10.3327    0.0000 H   0  0  0  0  0  0  0  0  0  0  0  0
   19.4607    8.5681    0.0000 H   0  0  0  0  0  0  0  0  0  0  0  0
   18.0632    7.7217    0.0000 H   0  0  0  0  0  0  0  0  0  0  0  0
   19.3959   11.8809    0.0000 H   0  0  0  0  0  0  0  0  0  0  0  0
   17.7267   11.2501    0.0000 H   0  0  0  0  0  0  0  0  0  0  0  0
   21.0948    8.9179    0.0000 H   0  0  0  0  0  0  0  0  0  0  0  0
   23.7270   12.5677    0.0000 H   0  0  0  0  0  0  0  0  0  0  0  0
   23.4646    9.9829    0.0000 H   0  0  0  0  0  0  0  0  0  0  0  0
   21.6198   14.0874    0.0000 H   0  0  0  0  0  0  0  0  0  0  0  0
   19.2500   13.0223    0.0000 H   0  0  0  0  0  0  0  0  0  0  0  0
   15.1765   11.6979    0.0000 H   0  0  0  0  0  0  0  0  0  0  0  0
   14.3356   12.2163    0.0000 H   0  0  0  0  0  0  0  0  0  0  0  0
   12.7796   14.5986    0.0000 H   0  0  0  0  0  0  0  0  0  0  0  0
   11.5497   13.3058    0.0000 H   0  0  0  0  0  0  0  0  0  0  0  0
   14.4560   15.2982    0.0000 H   0  0  0  0  0  0  0  0  0  0  0  0
   10.7441   14.2458    0.0000 H   0  0  0  0  0  0  0  0  0  0  0  0
    9.5808   14.2796    0.0000 H   0  0  0  0  0  0  0  0  0  0  0  0
    6.9839   15.4424    0.0000 H   0  0  0  0  0  0  0  0  0  0  0  0
    6.6481   13.6899    0.0000 H   0  0  0  0  0  0  0  0  0  0  0  0
   11.1536   14.4214    0.0000 H   0  0  0  0  0  0  0  0  0  0  0  0
   12.5158   16.9103    0.0000 H   0  0  0  0  0  0  0  0  0  0  0  0
   11.0314   19.5173    0.0000 H   0  0  0  0  0  0  0  0  0  0  0  0
    8.0314   19.5353    0.0000 H   0  0  0  0  0  0  0  0  0  0  0  0
    6.5159   16.9463    0.0000 H   0  0  0  0  0  0  0  0  0  0  0  0
    5.4622   14.0451    0.0000 H   0  0  0  0  0  0  0  0  0  0  0  0
    4.4654   13.4446    0.0000 H   0  0  0  0  0  0  0  0  0  0  0  0
    1.6520   13.0189    0.0000 H   0  0  0  0  0  0  0  0  0  0  0  0
    2.3170   11.3630    0.0000 H   0  0  0  0  0  0  0  0  0  0  0  0
    5.7117   14.4143    0.0000 H   0  0  0  0  0  0  0  0  0  0  0  0
    5.5121   17.2445    0.0000 H   0  0  0  0  0  0  0  0  0  0  0  0
    2.8539   18.6351    0.0000 H   0  0  0  0  0  0  0  0  0  0  0  0
    0.3205   17.0284    0.0000 H   0  0  0  0  0  0  0  0  0  0  0  0
    0.4452   14.0310    0.0000 H   0  0  0  0  0  0  0  0  0  0  0  0
    1.0068   10.8827    0.0000 H   0  0  0  0  0  0  0  0  0  0  0  0
    0.6133    9.9766    0.0000 H   0  0  0  0  0  0  0  0  0  0  0  0
   -0.9603    9.7908    0.0000 H   0  0  0  0  0  0  0  0  0  0  0  0
   -1.5232    8.0974    0.0000 H   0  0  0  0  0  0  0  0  0  0  0  0
   -0.0685    7.0640    0.0000 H   0  0  0  0  0  0  0  0  0  0  0  0
   -0.8843    6.1328    0.0000 H   0  0  0  0  0  0  0  0  0  0  0  0
   -0.6626    5.1363    0.0000 H   0  0  0  0  0  0  0  0  0  0  0  0
   -1.3848    2.1338    0.0000 H   0  0  0  0  0  0  0  0  0  0  0  0
    0.2489    2.1577    0.0000 H   0  0  0  0  0  0  0  0  0  0  0  0
   -1.5081    5.3948    0.0000 H   0  0  0  0  0  0  0  0  0  0  0  0
   -4.6079    3.4416    0.0000 H   0  0  0  0  0  0  0  0  0  0  0  0
   -3.9586    1.7795    0.0000 H   0  0  0  0  0  0  0  0  0  0  0  0
   -2.1793    1.9145    0.0000 H   0  0  0  0  0  0  0  0  0  0  0  0
   -4.5607    4.6943    0.0000 H   0  0  0  0  0  0  0  0  0  0  0  0
   -3.7879    6.3027    0.0000 H   0  0  0  0  0  0  0  0  0  0  0  0
   -1.9028    5.8965    0.0000 H   0  0  0  0  0  0  0  0  0  0  0  0
    0.0660    0.9332    0.0000 H   0  0  0  0  0  0  0  0  0  0  0  0
    3.1147   -2.3458    0.0000 H   0  0  0  0  0  0  0  0  0  0  0  0
    2.0628   -1.6537    0.0000 H   0  0  0  0  0  0  0  0  0  0  0  0
    4.4467   -3.2155    0.0000 H   0  0  0  0  0  0  0  0  0  0  0  0
    3.4660   -2.7386    0.0000 H   0  0  0  0  0  0  0  0  0  0  0  0
    6.2829   -3.7898    0.0000 H   0  0  0  0  0  0  0  0  0  0  0  0
    4.9084   -3.4209    0.0000 H   0  0  0  0  0  0  0  0  0  0  0  0
    7.2003   -4.1560    0.0000 H   0  0  0  0  0  0  0  0  0  0  0  0
   -0.1021   -1.1648    0.0000 H   0  0  0  0  0  0  0  0  0  0  0  0
   -0.6589    0.3712    0.0000 H   0  0  0  0  0  0  0  0  0  0  0  0
    0.5177    1.5048    0.0000 H   0  0  0  0  0  0  0  0  0  0  0  0
   -0.7895   -0.4645    0.0000 H   0  0  0  0  0  0  0  0  0  0  0  0
    1.2982   -3.1370    0.0000 H   0  0  0  0  0  0  0  0  0  0  0  0
    0.3602   -5.7955    0.0000 H   0  0  0  0  0  0  0  0  0  0  0  0
    1.3079   -4.1160    0.0000 H   0  0  0  0  0  0  0  0  0  0  0  0
   -1.4844   -5.9224    0.0000 H   0  0  0  0  0  0  0  0  0  0  0  0
   -3.6445   -3.3558    0.0000 H   0  0  0  0  0  0  0  0  0  0  0  0
   -6.4158   -3.8727    0.0000 H   0  0  0  0  0  0  0  0  0  0  0  0
   -4.6103   -3.1953    0.0000 H   0  0  0  0  0  0  0  0  0  0  0  0
   -6.5613   -7.1829    0.0000 H   0  0  0  0  0  0  0  0  0  0  0  0
   -5.2550   -7.0326    0.0000 H   0  0  0  0  0  0  0  0  0  0  0  0
   -9.9745   -6.4352    0.0000 H   0  0  0  0  0  0  0  0  0  0  0  0
   -8.5599   -8.2208    0.0000 H   0  0  0  0  0  0  0  0  0  0  0  0
   -6.8256   -5.6757    0.0000 H   0  0  0  0  0  0  0  0  0  0  0  0
   -4.6228   -8.2057    0.0000 H   0  0  0  0  0  0  0  0  0  0  0  0
   -4.6576   -9.0070    0.0000 H   0  0  0  0  0  0  0  0  0  0  0  0
   -7.5104  -11.6881    0.0000 H   0  0  0  0  0  0  0  0  0  0  0  0
   -8.8070  -10.9088    0.0000 H   0  0  0  0  0  0  0  0  0  0  0  0
   -8.7425   -9.5549    0.0000 H   0  0  0  0  0  0  0  0  0  0  0  0
   -5.3632  -12.3511    0.0000 H   0  0  0  0  0  0  0  0  0  0  0  0
   -6.8388  -11.6495    0.0000 H   0  0  0  0  0  0  0  0  0  0  0  0
   -3.5541  -12.5145    0.0000 H   0  0  0  0  0  0  0  0  0  0  0  0
   -2.6065  -10.8350    0.0000 H   0  0  0  0  0  0  0  0  0  0  0  0
   -3.9129   -9.6195    0.0000 H   0  0  0  0  0  0  0  0  0  0  0  0
   -5.8835  -10.2139    0.0000 H   0  0  0  0  0  0  0  0  0  0  0  0
   -6.2697  -12.0410    0.0000 H   0  0  0  0  0  0  0  0  0  0  0  0
   -6.8571  -12.8580    0.0000 H   0  0  0  0  0  0  0  0  0  0  0  0
   -8.7811  -13.4303    0.0000 H   0  0  0  0  0  0  0  0  0  0  0  0
   -9.9000  -13.0356    0.0000 H   0  0  0  0  0  0  0  0  0  0  0  0
  -11.0514  -11.5653    0.0000 H   0  0  0  0  0  0  0  0  0  0  0  0
   -9.7889   -8.6025    0.0000 H   0  0  0  0  0  0  0  0  0  0  0  0
  -11.2159   -7.6067    0.0000 H   0  0  0  0  0  0  0  0  0  0  0  0
  -12.9782  -10.5325    0.0000 H   0  0  0  0  0  0  0  0  0  0  0  0
  -15.7883  -10.7568    0.0000 H   0  0  0  0  0  0  0  0  0  0  0  0
  -13.8686  -10.9395    0.0000 H   0  0  0  0  0  0  0  0  0  0  0  0
  -16.7928   -7.5994    0.0000 H   0  0  0  0  0  0  0  0  0  0  0  0
  -15.4925   -7.4035    0.0000 H   0  0  0  0  0  0  0  0  0  0  0  0
  -16.6545   -9.1233    0.0000 H   0  0  0  0  0  0  0  0  0  0  0  0
  -15.1226   -6.2770    0.0000 H   0  0  0  0  0  0  0  0  0  0  0  0
  -17.7809   -4.0426    0.0000 H   0  0  0  0  0  0  0  0  0  0  0  0
  -18.4045   -5.5528    0.0000 H   0  0  0  0  0  0  0  0  0  0  0  0
  -14.8660   -5.3475    0.0000 H   0  0  0  0  0  0  0  0  0  0  0  0
  -15.3061   -1.5985    0.0000 H   0  0  0  0  0  0  0  0  0  0  0  0
  -17.0895   -1.5382    0.0000 H   0  0  0  0  0  0  0  0  0  0  0  0
  -17.6685   -3.2261    0.0000 H   0  0  0  0  0  0  0  0  0  0  0  0
  -14.1740   -2.1368    0.0000 H   0  0  0  0  0  0  0  0  0  0  0  0
  -13.0018   -3.4823    0.0000 H   0  0  0  0  0  0  0  0  0  0  0  0
  -14.1198   -5.0534    0.0000 H   0  0  0  0  0  0  0  0  0  0  0  0
  -18.4247   -4.1908    0.0000 H   0  0  0  0  0  0  0  0  0  0  0  0
  -20.0170   -7.1850    0.0000 H   0  0  0  0  0  0  0  0  0  0  0  0
  -22.8271   -7.4094    0.0000 H   0  0  0  0  0  0  0  0  0  0  0  0
  -20.9074   -7.5920    0.0000 H   0  0  0  0  0  0  0  0  0  0  0  0
  -23.8316   -4.2519    0.0000 H   0  0  0  0  0  0  0  0  0  0  0  0
  -22.5313   -4.0560    0.0000 H   0  0  0  0  0  0  0  0  0  0  0  0
  -23.6933   -5.7759    0.0000 H   0  0  0  0  0  0  0  0  0  0  0  0
  -22.2272   -2.7586    0.0000 H   0  0  0  0  0  0  0  0  0  0  0  0
  -24.6628   -0.6006    0.0000 H   0  0  0  0  0  0  0  0  0  0  0  0
  -25.4433   -2.2053    0.0000 H   0  0  0  0  0  0  0  0  0  0  0  0
  -22.2086    1.6266    0.0000 H   0  0  0  0  0  0  0  0  0  0  0  0
  -24.7232    0.9732    0.0000 H   0  0  0  0  0  0  0  0  0  0  0  0
  -25.4634   -0.8433    0.0000 H   0  0  0  0  0  0  0  0  0  0  0  0
  -27.0557   -3.8375    0.0000 H   0  0  0  0  0  0  0  0  0  0  0  0
  -29.8659   -4.0619    0.0000 H   0  0  0  0  0  0  0  0  0  0  0  0
  -27.9462   -4.2446    0.0000 H   0  0  0  0  0  0  0  0  0  0  0  0
  -32.7027   -2.0491    0.0000 H   0  0  0  0  0  0  0  0  0  0  0  0
  -31.5257   -4.2565    0.0000 H   0  0  0  0  0  0  0  0  0  0  0  0
  -30.7321   -2.4284    0.0000 H   0  0  0  0  0  0  0  0  0  0  0  0
  -29.2660    0.5889    0.0000 H   0  0  0  0  0  0  0  0  0  0  0  0
  -30.8654    2.9104    0.0000 H   0  0  0  0  0  0  0  0  0  0  0  0
  -29.5122    1.5365    0.0000 H   0  0  0  0  0  0  0  0  0  0  0  0
  -33.9486    1.6969    0.0000 H   0  0  0  0  0  0  0  0  0  0  0  0
  -33.2800    0.5646    0.0000 H   0  0  0  0  0  0  0  0  0  0  0  0
  -32.6792    2.5514    0.0000 H   0  0  0  0  0  0  0  0  0  0  0  0
  -34.0945   -0.4901    0.0000 H   0  0  0  0  0  0  0  0  0  0  0  0
  -36.7684   -0.8369    0.0000 H   0  0  0  0  0  0  0  0  0  0  0  0
  -34.9850   -0.8971    0.0000 H   0  0  0  0  0  0  0  0  0  0  0  0
  -37.7523    2.5375    0.0000 H   0  0  0  0  0  0  0  0  0  0  0  0
  -36.6089    2.6389    0.0000 H   0  0  0  0  0  0  0  0  0  0  0  0
  -39.3548   -0.5908    0.0000 H   0  0  0  0  0  0  0  0  0  0  0  0
  -37.7283   -0.7456    0.0000 H   0  0  0  0  0  0  0  0  0  0  0  0
  -40.4956    2.6891    0.0000 H   0  0  0  0  0  0  0  0  0  0  0  0
  -38.7121    2.6289    0.0000 H   0  0  0  0  0  0  0  0  0  0  0  0
  -42.2309    1.6999    0.0000 H   0  0  0  0  0  0  0  0  0  0  0  0
  -42.0775   -0.2223    0.0000 H   0  0  0  0  0  0  0  0  0  0  0  0
  -40.3147   -0.4995    0.0000 H   0  0  0  0  0  0  0  0  0  0  0  0
  -37.7709    0.9191    0.0000 H   0  0  0  0  0  0  0  0  0  0  0  0
  -36.3048    3.9364    0.0000 H   0  0  0  0  0  0  0  0  0  0  0  0
  -36.9776    5.8171    0.0000 H   0  0  0  0  0  0  0  0  0  0  0  0
  -38.5731    6.1690    0.0000 H   0  0  0  0  0  0  0  0  0  0  0  0
  -39.5208    4.4896    0.0000 H   0  0  0  0  0  0  0  0  0  0  0  0
  -41.3954    2.9709    0.0000 H   0  0  0  0  0  0  0  0  0  0  0  0
  -42.9894    4.1911    0.0000 H   0  0  0  0  0  0  0  0  0  0  0  0
  -43.3277    5.3283    0.0000 H   0  0  0  0  0  0  0  0  0  0  0  0
  -42.6597    7.2213    0.0000 H   0  0  0  0  0  0  0  0  0  0  0  0
  -41.6827    7.8944    0.0000 H   0  0  0  0  0  0  0  0  0  0  0  0
  -39.8164    7.9617    0.0000 H   0  0  0  0  0  0  0  0  0  0  0  0
  -38.0932    5.3688    0.0000 H   0  0  0  0  0  0  0  0  0  0  0  0
  1  2  1  0
  2  3  1  0
  3  4  2  0
  4  5  1  0
  5  6  2  0
  6  7  1  0
  7  8  2  0
  7  9  1  0
  9 10  1  0
 10 11  1  0
 11 12  2  0
  9 13  1  0
 13 14  1  0
 14 15  2  0
 15 16  1  0
 16 17  2  0
 17 18  1  0
 16 19  1  0
 14 20  1  0
 20 21  1  0
 21 22  2  0
 22 23  1  0
 23 24  2  0
 24 25  1  0
 25 26  2  0
 25 27  1  0
  1 28  2  0
  1 29  1  0
 29 30  1  0
 30 31  1  0
 31 32  1  0
 32 33  2  0
 32 34  1  0
 34 35  1  0
 35 36  1  0
 36 37  1  0
 37 38  1  0
 37 39  2  0
 35 40  1  0
 40 41  2  0
 40 42  1  0
 42 43  1  0
 43 44  1  0
 44 45  1  0
 45 46  1  0
 46 47  1  0
 46 48  2  0
 43 49  1  0
 49 50  2  0
 49 51  1  0
 51 52  1  0
 52 53  1  0
 53 54  1  0
 54 55  1  0
 54 56  1  0
 52 57  1  0
 57 58  2  0
 57 59  1  0
 60 59  1  6
 60 61  1  0
 61 62  1  0
 62 63  1  0
 63 64  1  0
 64 65  1  0
 65 66  1  0
 66 67  1  0
 60 68  1  0
 60 69  1  0
 69 70  2  0
 69 71  1  0
 71 72  1  0
 72 73  1  0
 73 74  1  0
 74 75  1  0
 75 76  1  0
 76 77  1  0
 77 78  2  3
 77 79  1  0
 72 80  1  0
 80 81  2  0
 80 82  1  0
 82 83  1  0
 83 84  1  0
 84 85  1  0
 83 86  1  0
 86 87  2  0
 86 88  1  0
 88 89  1  0
 89 90  1  0
 90 91  1  0
 91 92  2  0
 92 93  1  0
 93 94  2  0
 94 95  1  0
 95 96  2  0
 89 97  1  0
 97 98  2  0
 97 99  1  0
 99100  1  0
100101  1  0
101102  1  0
102103  2  0
103104  1  0
104105  2  0
105106  1  0
106107  2  0
100108  1  0
108109  2  0
108110  1  0
110111  1  0
111112  1  0
111113  1  0
113114  2  0
113115  1  0
115116  1  0
116117  1  0
117118  1  0
118119  1  0
118120  1  0
116121  1  0
121122  2  0
121123  1  0
123124  1  0
124125  1  0
125126  1  0
126127  1  0
127128  1  0
124129  1  0
124130  1  1
130131  2  0
130132  1  0
132133  1  0
133134  1  0
134135  1  0
135136  2  0
135137  1  0
133138  1  0
138139  2  0
138140  1  0
140141  1  0
141142  1  0
142143  1  0
143144  1  0
144145  1  0
144146  2  0
141147  1  0
147148  2  0
147149  1  0
149150  1  0
150151  1  0
151152  1  0
151153  1  0
153154  1  0
150155  1  0
155156  2  0
155157  1  0
157158  1  0
158159  1  0
159160  1  0
160161  1  0
161162  1  0
162163  2  0
162164  1  0
164165  1  0
165166  1  0
166167  1  0
167168  1  0
168169  2  0
168170  1  0
165171  1  0
171172  2  0
171173  1  0
173174  1  0
174175  1  0
175176  1  0
176177  1  0
176178  1  0
174179  1  0
179180  2  0
179181  1  0
181182  1  0
182183  1  0
183184  1  0
184185  1  0
185186  2  0
185187  1  0
182188  1  0
188189  2  0
188190  1  0
190191  1  0
191192  1  0
192193  1  0
193194  1  0
193195  2  0
191196  1  0
196197  2  0
196198  1  0
198199  1  0
199200  1  0
200201  1  0
201202  1  0
201203  2  0
199204  1  0
204205  2  0
204206  1  0
206207  1  0
207208  1  0
208209  1  0
209210  1  0
210211  2  0
210212  1  0
207213  1  0
213214  2  0
213215  1  0
215216  1  0
216217  1  0
217218  1  0
218219  1  0
219220  1  0
220221  1  0
216222  1  0
222223  2  0
222224  1  0
224225  1  0
225226  1  0
225227  1  0
227228  2  0
227229  1  0
229230  1  0
230231  1  0
231232  1  0
232233  1  0
233234  1  0
234235  2  0
234236  1  0
  8  3  1  0
 96 91  1  0
107102  1  0
161157  1  0
233229  1  0
 11  6  1  0
 18 13  2  0
 67128  2  0
 22  9  1  0
 26 21  1  0
  2237  1  0
  4238  1  0
  5239  1  0
  8240  1  0
 15241  1  0
 17242  1  0
 18243  1  0
 19244  1  0
 23245  1  0
 24246  1  0
 26247  1  0
 27248  1  0
 29249  1  0
 30250  1  0
 30251  1  0
 31252  1  0
 31253  1  0
 34254  1  0
 35255  1  1
 36256  1  0
 36257  1  0
 38258  1  0
 38259  1  0
 42260  1  0
 43261  1  1
 44262  1  0
 44263  1  0
 45264  1  0
 45265  1  0
 47266  1  0
 47267  1  0
 51268  1  0
 52269  1  1
 53270  1  0
 53271  1  0
 54272  1  0
 55273  1  0
 55274  1  0
 55275  1  0
 56276  1  0
 56277  1  0
 56278  1  0
 59279  1  0
 61280  1  0
 61281  1  0
 62282  1  0
 62283  1  0
 63284  1  0
 63285  1  0
 64286  1  0
 64287  1  0
 65288  1  0
 65289  1  0
 66290  1  0
 66291  1  0
 67292  1  0
 68293  1  0
 68294  1  0
 68295  1  0
 71296  1  0
 72297  1  6
 73298  1  0
 73299  1  0
 74300  1  0
 74301  1  0
 75302  1  0
 75303  1  0
 76304  1  0
 78305  1  0
 78306  1  0
 79307  1  0
 79308  1  0
 82309  1  0
 83310  1  6
 84311  1  0
 84312  1  0
 85313  1  0
 88314  1  0
 89315  1  6
 90316  1  0
 90317  1  0
 92318  1  0
 93319  1  0
 94320  1  0
 95321  1  0
 96322  1  0
 99323  1  0
100324  1  6
101325  1  0
101326  1  0
103327  1  0
104328  1  0
105329  1  0
106330  1  0
107331  1  0
110332  1  0
111333  1  6
112334  1  0
112335  1  0
112336  1  0
115337  1  0
116338  1  6
117339  1  0
117340  1  0
118341  1  0
119342  1  0
119343  1  0
119344  1  0
120345  1  0
120346  1  0
120347  1  0
123348  1  0
125349  1  0
125350  1  0
126351  1  0
126352  1  0
127353  1  0
127354  1  0
128355  1  0
129356  1  0
129357  1  0
129358  1  0
132359  1  0
133360  1  1
134361  1  0
134362  1  0
140363  1  0
141364  1  6
142365  1  0
142366  1  0
143367  1  0
143368  1  0
145369  1  0
145370  1  0
149371  1  0
150372  1  1
151373  1  1
152374  1  0
152375  1  0
152376  1  0
153377  1  0
153378  1  0
154379  1  0
154380  1  0
154381  1  0
158382  1  0
158383  1  0
159384  1  0
159385  1  0
160386  1  0
160387  1  0
161388  1  0
164389  1  0
165390  1  1
166391  1  0
166392  1  0
167393  1  0
167394  1  0
173395  1  0
174396  1  6
175397  1  0
175398  1  0
176399  1  0
177400  1  0
177401  1  0
177402  1  0
178403  1  0
178404  1  0
178405  1  0
181406  1  0
182407  1  1
183408  1  0
183409  1  0
184410  1  0
184411  1  0
190412  1  0
191413  1  6
192414  1  0
192415  1  0
194416  1  0
194417  1  0
198418  1  0
199419  1  1
200420  1  0
200421  1  0
202422  1  0
202423  1  0
206424  1  0
207425  1  6
208426  1  0
208427  1  0
209428  1  0
209429  1  0
215430  1  0
216431  1  1
217432  1  0
217433  1  0
218434  1  0
218435  1  0
219436  1  0
219437  1  0
220438  1  0
220439  1  0
221440  1  0
221441  1  0
221442  1  0
224443  1  0
225444  1  6
226445  1  0
226446  1  0
226447  1  0
230448  1  0
230449  1  0
231450  1  0
231451  1  0
232452  1  0
232453  1  0
233454  1  0
M  CHG  7  78   1 137  -1 170  -1 187  -1 212  -1 221   1 236  -1
M  END
