
     RDKit          2D

302309  0  0  0  0  0  0  0  0999 V2000
   20.3239   -2.9290    0.0000 C   0  0  0  0  0  0  0  0  0  0  0  0
   21.6397   -2.2089    0.0000 N   0  0  0  0  0  0  0  0  0  0  0  0
   22.9212   -2.9885    0.0000 C   0  0  0  0  0  0  0  0  0  0  0  0
   22.8869   -4.4881    0.0000 C   0  0  0  0  0  0  0  0  0  0  0  0
   24.1685   -5.2676    0.0000 C   0  0  0  0  0  0  0  0  0  0  0  0
   25.4843   -4.5475    0.0000 C   0  0  0  0  0  0  0  0  0  0  0  0
   25.5186   -3.0479    0.0000 C   0  0  0  0  0  0  0  0  0  0  0  0
   24.2371   -2.2684    0.0000 C   0  0  0  0  0  0  0  0  0  0  0  0
   26.9555   -2.6172    0.0000 C   0  0  0  0  0  0  0  0  0  0  0  0
   27.8091   -3.8505    0.0000 O   0  0  0  0  0  0  0  0  0  0  0  0
   26.8999   -5.0436    0.0000 C   0  0  0  0  0  0  0  0  0  0  0  0
   27.3307   -6.4804    0.0000 O   0  0  0  0  0  0  0  0  0  0  0  0
   28.4294   -2.3390    0.0000 C   0  0  0  0  0  0  0  0  0  0  0  0
   28.9255   -0.9233    0.0000 C   0  0  0  0  0  0  0  0  0  0  0  0
   30.3995   -0.6451    0.0000 C   0  0  0  0  0  0  0  0  0  0  0  0
   31.3774   -1.7825    0.0000 C   0  0  0  0  0  0  0  0  0  0  0  0
   30.8813   -3.1981    0.0000 C   0  0  0  0  0  0  0  0  0  0  0  0
   29.4074   -3.4763    0.0000 C   0  0  0  0  0  0  0  0  0  0  0  0
   32.8514   -1.5043    0.0000 O   0  0  0  0  0  0  0  0  0  0  0  0
   27.9476    0.2140    0.0000 O   0  0  0  0  0  0  0  0  0  0  0  0
   26.4736   -0.0642    0.0000 C   0  0  0  0  0  0  0  0  0  0  0  0
   25.9775   -1.4798    0.0000 C   0  0  0  0  0  0  0  0  0  0  0  0
   24.7350   -1.0974    0.0000 C   0  0  0  0  0  0  0  0  0  0  0  0
   24.2135   -0.4908    0.0000 C   0  0  0  0  0  0  0  0  0  0  0  0
   24.4780    0.2642    0.0000 C   0  0  0  0  0  0  0  0  0  0  0  0
   25.2642    0.4126    0.0000 C   0  0  0  0  0  0  0  0  0  0  0  0
   23.0438    1.9324    0.0000 O   0  0  0  0  0  0  0  0  0  0  0  0
   20.2895   -4.4286    0.0000 S   0  0  0  0  0  0  0  0  0  0  0  0
   19.0423   -2.1495    0.0000 N   0  0  0  0  0  0  0  0  0  0  0  0
   17.7265   -2.8696    0.0000 C   0  0  0  0  0  0  0  0  0  0  0  0
   16.4449   -2.0901    0.0000 C   0  0  0  0  0  0  0  0  0  0  0  0
   15.1291   -2.8101    0.0000 C   0  0  0  0  0  0  0  0  0  0  0  0
   15.3042   -3.5878    0.0000 O   0  0  0  0  0  0  0  0  0  0  0  0
   13.8475   -2.0306    0.0000 N   0  0  0  0  0  0  0  0  0  0  0  0
   12.5317   -2.7507    0.0000 C   0  0  0  0  0  0  0  0  0  0  0  0
   13.4693   -3.9215    0.0000 C   0  0  0  0  0  0  0  0  0  0  0  0
   14.9521   -3.6949    0.0000 C   0  0  0  0  0  0  0  0  0  0  0  0
   15.8897   -4.8657    0.0000 N   0  0  0  0  0  0  0  0  0  0  0  0
   15.8192   -2.4709    0.0000 O   0  0  0  0  0  0  0  0  0  0  0  0
   11.0489   -2.9773    0.0000 C   0  0  0  0  0  0  0  0  0  0  0  0
   10.8581   -4.4651    0.0000 O   0  0  0  0  0  0  0  0  0  0  0  0
   10.1112   -1.8065    0.0000 N   0  0  0  0  0  0  0  0  0  0  0  0
    8.6285   -2.0331    0.0000 C   0  0  0  0  0  0  0  0  0  0  0  0
    9.1091   -3.4540    0.0000 C   0  0  0  0  0  0  0  0  0  0  0  0
   10.5800   -3.7482    0.0000 C   0  0  0  0  0  0  0  0  0  0  0  0
   11.0606   -5.1691    0.0000 C   0  0  0  0  0  0  0  0  0  0  0  0
   12.4846   -5.6404    0.0000 N   0  0  0  0  0  0  0  0  0  0  0  0
   10.0704   -6.2958    0.0000 O   0  0  0  0  0  0  0  0  0  0  0  0
    7.1576   -1.7389    0.0000 C   0  0  0  0  0  0  0  0  0  0  0  0
    6.4694   -3.0717    0.0000 O   0  0  0  0  0  0  0  0  0  0  0  0
    6.6769   -0.3179    0.0000 N   0  0  0  0  0  0  0  0  0  0  0  0
    5.2061   -0.0237    0.0000 C   0  0  0  0  0  0  0  0  0  0  0  0
    5.1718   -1.5234    0.0000 C   0  0  0  0  0  0  0  0  0  0  0  0
    6.4533   -2.3029    0.0000 C   0  0  0  0  0  0  0  0  0  0  0  0
    6.4190   -3.8025    0.0000 C   0  0  0  0  0  0  0  0  0  0  0  0
    7.9242   -2.5971    0.0000 C   0  0  0  0  0  0  0  0  0  0  0  0
    3.9245    0.7558    0.0000 C   0  0  0  0  0  0  0  0  0  0  0  0
    2.8220   -0.2613    0.0000 O   0  0  0  0  0  0  0  0  0  0  0  0
    3.9589    2.2554    0.0000 N   0  0  0  0  0  0  0  0  0  0  0  0
    2.6773    3.0349    0.0000 C   0  0  0  0  0  0  0  0  0  0  0  0
    2.5480    1.5405    0.0000 C   0  0  0  0  0  0  0  0  0  0  0  0
    2.1381    0.0976    0.0000 C   0  0  0  0  0  0  0  0  0  0  0  0
    1.4626   -1.2417    0.0000 C   0  0  0  0  0  0  0  0  0  0  0  0
    0.5458   -2.4289    0.0000 C   0  0  0  0  0  0  0  0  0  0  0  0
   -0.5790   -3.4212    0.0000 C   0  0  0  0  0  0  0  0  0  0  0  0
   -1.8714   -4.1827    0.0000 C   0  0  0  0  0  0  0  0  0  0  0  0
   -3.2845   -4.6858    0.0000 C   0  0  0  0  0  0  0  0  0  0  0  0
    3.9449    3.8370    0.0000 C   0  0  0  0  0  0  0  0  0  0  0  0
    2.5215    4.5268    0.0000 C   0  0  0  0  0  0  0  0  0  0  0  0
    3.9447    5.0007    0.0000 O   0  0  0  0  0  0  0  0  0  0  0  0
    2.0862    5.9623    0.0000 N   0  0  0  0  0  0  0  0  0  0  0  0
    1.3871    7.2894    0.0000 C   0  0  0  0  0  0  0  0  0  0  0  0
    2.0198    8.6494    0.0000 C   0  0  0  0  0  0  0  0  0  0  0  0
    3.5140    8.7815    0.0000 C   0  0  0  0  0  0  0  0  0  0  0  0
    4.3755    7.5536    0.0000 C   0  0  0  0  0  0  0  0  0  0  0  0
    5.8696    7.6857    0.0000 C   0  0  0  0  0  0  0  0  0  0  0  0
    6.5023    9.0457    0.0000 C   0  0  0  0  0  0  0  0  0  0  0  0
    5.6408   10.2737    0.0000 C   0  0  0  0  0  0  0  0  0  0  0  0
    4.1466   10.1416    0.0000 C   0  0  0  0  0  0  0  0  0  0  0  0
    0.4495    8.4602    0.0000 C   0  0  0  0  0  0  0  0  0  0  0  0
    1.3905    9.6283    0.0000 O   0  0  0  0  0  0  0  0  0  0  0  0
   -0.6928    9.4324    0.0000 N   0  0  0  0  0  0  0  0  0  0  0  0
   -1.9984   10.1709    0.0000 C   0  0  0  0  0  0  0  0  0  0  0  0
   -2.2015   11.6571    0.0000 C   0  0  0  0  0  0  0  0  0  0  0  0
   -1.0159   12.5760    0.0000 O   0  0  0  0  0  0  0  0  0  0  0  0
   -3.4202   10.6489    0.0000 C   0  0  0  0  0  0  0  0  0  0  0  0
   -3.2601   12.1404    0.0000 O   0  0  0  0  0  0  0  0  0  0  0  0
   -4.9068   10.8493    0.0000 N   0  0  0  0  0  0  0  0  0  0  0  0
   -6.4044   10.7646    0.0000 C   0  0  0  0  0  0  0  0  0  0  0  0
   -7.3787   11.9051    0.0000 C   0  0  0  0  0  0  0  0  0  0  0  0
   -6.8782   13.3191    0.0000 C   0  0  0  0  0  0  0  0  0  0  0  0
   -7.8525   14.4596    0.0000 C   0  0  0  0  0  0  0  0  0  0  0  0
   -7.3519   15.8737    0.0000 N   0  0  0  0  0  0  0  0  0  0  0  0
   -8.3262   17.0141    0.0000 C   0  0  0  0  0  0  0  0  0  0  0  0
   -7.8257   18.4282    0.0000 N   0  0  0  0  0  0  0  0  0  0  0  0
   -9.8011   16.7406    0.0000 N   0  0  0  0  0  0  0  0  0  0  0  0
   -7.8589   10.3981    0.0000 C   0  0  0  0  0  0  0  0  0  0  0  0
   -8.5305   11.7393    0.0000 O   0  0  0  0  0  0  0  0  0  0  0  0
   -9.2178    9.7629    0.0000 N   0  0  0  0  0  0  0  0  0  0  0  0
  -10.4319    8.8821    0.0000 C   0  0  0  0  0  0  0  0  0  0  0  0
  -11.8682    9.3148    0.0000 C   0  0  0  0  0  0  0  0  0  0  0  0
  -12.2116   10.7749    0.0000 C   0  0  0  0  0  0  0  0  0  0  0  0
  -11.1187   11.8024    0.0000 C   0  0  0  0  0  0  0  0  0  0  0  0
  -11.4621   13.2626    0.0000 C   0  0  0  0  0  0  0  0  0  0  0  0
  -12.8984   13.6952    0.0000 C   0  0  0  0  0  0  0  0  0  0  0  0
  -13.9912   12.6678    0.0000 C   0  0  0  0  0  0  0  0  0  0  0  0
  -13.6478   11.2076    0.0000 C   0  0  0  0  0  0  0  0  0  0  0  0
  -11.4574    7.7873    0.0000 C   0  0  0  0  0  0  0  0  0  0  0  0
  -12.7475    8.5526    0.0000 O   0  0  0  0  0  0  0  0  0  0  0  0
  -12.2571    6.5183    0.0000 N   0  0  0  0  0  0  0  0  0  0  0  0
  -12.8023    5.1209    0.0000 C   0  0  0  0  0  0  0  0  0  0  0  0
  -14.2445    4.7084    0.0000 C   0  0  0  0  0  0  0  0  0  0  0  0
  -13.0731    3.6456    0.0000 C   0  0  0  0  0  0  0  0  0  0  0  0
  -14.5722    3.5918    0.0000 O   0  0  0  0  0  0  0  0  0  0  0  0
  -13.0599    2.1456    0.0000 N   0  0  0  0  0  0  0  0  0  0  0  0
  -12.7630    0.6753    0.0000 C   0  0  0  0  0  0  0  0  0  0  0  0
  -13.7532   -0.4514    0.0000 C   0  0  0  0  0  0  0  0  0  0  0  0
  -15.2240   -0.1572    0.0000 C   0  0  0  0  0  0  0  0  0  0  0  0
  -16.2143   -1.2839    0.0000 C   0  0  0  0  0  0  0  0  0  0  0  0
  -16.5056    0.6223    0.0000 C   0  0  0  0  0  0  0  0  0  0  0  0
  -12.1932   -0.7123    0.0000 C   0  0  0  0  0  0  0  0  0  0  0  0
  -13.4252   -1.5679    0.0000 O   0  0  0  0  0  0  0  0  0  0  0  0
  -11.3711   -1.9669    0.0000 N   0  0  0  0  0  0  0  0  0  0  0  0
  -10.3264   -3.0433    0.0000 C   0  0  0  0  0  0  0  0  0  0  0  0
   -9.0969   -3.9026    0.0000 C   0  0  0  0  0  0  0  0  0  0  0  0
   -7.7269   -4.5136    0.0000 C   0  0  0  0  0  0  0  0  0  0  0  0
   -6.2662   -4.8543    0.0000 C   0  0  0  0  0  0  0  0  0  0  0  0
   -4.7673   -4.9124    0.0000 C   0  0  0  0  0  0  0  0  0  0  0  0
  -11.7547   -3.5014    0.0000 C   0  0  0  0  0  0  0  0  0  0  0  0
  -10.5503   -4.5265    0.0000 C   0  0  0  0  0  0  0  0  0  0  0  0
   -9.6389   -5.7179    0.0000 O   0  0  0  0  0  0  0  0  0  0  0  0
  -11.9467   -5.0742    0.0000 N   0  0  0  0  0  0  0  0  0  0  0  0
  -12.1706   -6.5574    0.0000 C   0  0  0  0  0  0  0  0  0  0  0  0
  -11.8737   -8.0277    0.0000 C   0  0  0  0  0  0  0  0  0  0  0  0
  -12.9986   -9.0200    0.0000 C   0  0  0  0  0  0  0  0  0  0  0  0
  -12.7017  -10.4904    0.0000 O   0  0  0  0  0  0  0  0  0  0  0  0
  -14.4938   -8.9002    0.0000 O   0  0  0  0  0  0  0  0  0  0  0  0
  -13.5670   -7.1051    0.0000 C   0  0  0  0  0  0  0  0  0  0  0  0
  -14.7395   -6.1696    0.0000 O   0  0  0  0  0  0  0  0  0  0  0  0
  -13.7909   -8.5883    0.0000 N   0  0  0  0  0  0  0  0  0  0  0  0
  -15.1873   -9.1360    0.0000 C   0  0  0  0  0  0  0  0  0  0  0  0
  -16.6869   -9.1731    0.0000 C   0  0  0  0  0  0  0  0  0  0  0  0
  -17.4045  -10.4903    0.0000 C   0  0  0  0  0  0  0  0  0  0  0  0
  -18.9041  -10.5274    0.0000 C   0  0  0  0  0  0  0  0  0  0  0  0
  -19.7769  -11.7472    0.0000 N   0  0  0  0  0  0  0  0  0  0  0  0
  -19.6859   -9.2473    0.0000 O   0  0  0  0  0  0  0  0  0  0  0  0
  -15.4112  -10.6192    0.0000 C   0  0  0  0  0  0  0  0  0  0  0  0
  -14.2387  -11.5547    0.0000 O   0  0  0  0  0  0  0  0  0  0  0  0
  -16.8076  -11.1669    0.0000 N   0  0  0  0  0  0  0  0  0  0  0  0
  -17.0315  -12.6501    0.0000 C   0  0  0  0  0  0  0  0  0  0  0  0
  -16.7346  -14.1205    0.0000 C   0  0  0  0  0  0  0  0  0  0  0  0
  -17.8595  -15.1128    0.0000 C   0  0  0  0  0  0  0  0  0  0  0  0
  -15.9527  -15.4006    0.0000 C   0  0  0  0  0  0  0  0  0  0  0  0
  -14.4532  -15.3635    0.0000 C   0  0  0  0  0  0  0  0  0  0  0  0
  -18.4279  -13.1979    0.0000 C   0  0  0  0  0  0  0  0  0  0  0  0
  -18.8310  -14.6427    0.0000 O   0  0  0  0  0  0  0  0  0  0  0  0
  -19.7058  -12.4123    0.0000 O   0  0  0  0  0  0  0  0  0  0  0  0
   21.4910   -0.7163    0.0000 H   0  0  0  0  0  0  0  0  0  0  0  0
   21.5711   -5.2082    0.0000 H   0  0  0  0  0  0  0  0  0  0  0  0
   24.1341   -6.7672    0.0000 H   0  0  0  0  0  0  0  0  0  0  0  0
   23.9075   -0.8050    0.0000 H   0  0  0  0  0  0  0  0  0  0  0  0
   30.8955    0.7705    0.0000 H   0  0  0  0  0  0  0  0  0  0  0  0
   31.8593   -4.3355    0.0000 H   0  0  0  0  0  0  0  0  0  0  0  0
   28.9113   -4.8919    0.0000 H   0  0  0  0  0  0  0  0  0  0  0  0
   33.8293   -2.6417    0.0000 H   0  0  0  0  0  0  0  0  0  0  0  0
   24.0075   -3.1736    0.0000 H   0  0  0  0  0  0  0  0  0  0  0  0
   22.0287   -0.7171    0.0000 H   0  0  0  0  0  0  0  0  0  0  0  0
   25.9917    2.4888    0.0000 H   0  0  0  0  0  0  0  0  0  0  0  0
   23.5398    3.3480    0.0000 H   0  0  0  0  0  0  0  0  0  0  0  0
   19.0766   -0.6499    0.0000 H   0  0  0  0  0  0  0  0  0  0  0  0
   18.6641   -4.0404    0.0000 H   0  0  0  0  0  0  0  0  0  0  0  0
   16.8810   -4.1086    0.0000 H   0  0  0  0  0  0  0  0  0  0  0  0
   17.4351   -0.9633    0.0000 H   0  0  0  0  0  0  0  0  0  0  0  0
   15.5073   -0.9192    0.0000 H   0  0  0  0  0  0  0  0  0  0  0  0
   13.8818   -0.5310    0.0000 H   0  0  0  0  0  0  0  0  0  0  0  0
   12.0510   -1.3298    0.0000 H   0  0  0  0  0  0  0  0  0  0  0  0
   13.9499   -5.3424    0.0000 H   0  0  0  0  0  0  0  0  0  0  0  0
   12.2510   -4.7966    0.0000 H   0  0  0  0  0  0  0  0  0  0  0  0
   17.3891   -4.8216    0.0000 H   0  0  0  0  0  0  0  0  0  0  0  0
   15.3446   -6.2632    0.0000 H   0  0  0  0  0  0  0  0  0  0  0  0
   10.6564   -0.4090    0.0000 H   0  0  0  0  0  0  0  0  0  0  0  0
    8.8453   -0.5488    0.0000 H   0  0  0  0  0  0  0  0  0  0  0  0
    9.0748   -4.9536    0.0000 H   0  0  0  0  0  0  0  0  0  0  0  0
    7.7252   -4.0326    0.0000 H   0  0  0  0  0  0  0  0  0  0  0  0
   12.0627   -3.5216    0.0000 H   0  0  0  0  0  0  0  0  0  0  0  0
   10.9761   -2.3014    0.0000 H   0  0  0  0  0  0  0  0  0  0  0  0
   13.0121   -6.8842    0.0000 H   0  0  0  0  0  0  0  0  0  0  0  0
   13.8064   -4.6263    0.0000 H   0  0  0  0  0  0  0  0  0  0  0  0
    7.6672    0.8088    0.0000 H   0  0  0  0  0  0  0  0  0  0  0  0
    5.7512    1.3737    0.0000 H   0  0  0  0  0  0  0  0  0  0  0  0
    4.4603   -2.8439    0.0000 H   0  0  0  0  0  0  0  0  0  0  0  0
    3.7009   -1.2291    0.0000 H   0  0  0  0  0  0  0  0  0  0  0  0
    7.3204   -1.0789    0.0000 H   0  0  0  0  0  0  0  0  0  0  0  0
    7.4738   -4.8689    0.0000 H   0  0  0  0  0  0  0  0  0  0  0  0
    5.8738   -5.1999    0.0000 H   0  0  0  0  0  0  0  0  0  0  0  0
    4.9232   -3.6898    0.0000 H   0  0  0  0  0  0  0  0  0  0  0  0
    8.4048   -4.0180    0.0000 H   0  0  0  0  0  0  0  0  0  0  0  0
    9.4177   -2.7360    0.0000 H   0  0  0  0  0  0  0  0  0  0  0  0
    7.7754   -1.1045    0.0000 H   0  0  0  0  0  0  0  0  0  0  0  0
    5.3527    2.8097    0.0000 H   0  0  0  0  0  0  0  0  0  0  0  0
    4.0354    1.7340    0.0000 H   0  0  0  0  0  0  0  0  0  0  0  0
    3.5277    0.4046    0.0000 H   0  0  0  0  0  0  0  0  0  0  0  0
    3.6130   -0.1757    0.0000 H   0  0  0  0  0  0  0  0  0  0  0  0
    3.0381   -1.1024    0.0000 H   0  0  0  0  0  0  0  0  0  0  0  0
    2.9626   -1.2522    0.0000 H   0  0  0  0  0  0  0  0  0  0  0  0
    2.2788   -2.5002    0.0000 H   0  0  0  0  0  0  0  0  0  0  0  0
    1.9699   -2.9002    0.0000 H   0  0  0  0  0  0  0  0  0  0  0  0
    1.1091   -3.8192    0.0000 H   0  0  0  0  0  0  0  0  0  0  0  0
    0.7301   -4.1535    0.0000 H   0  0  0  0  0  0  0  0  0  0  0  0
   -0.2891   -4.8929    0.0000 H   0  0  0  0  0  0  0  0  0  0  0  0
   -0.7245   -5.1495    0.0000 H   0  0  0  0  0  0  0  0  0  0  0  0
   -2.0481   -5.6722    0.0000 H   0  0  0  0  0  0  0  0  0  0  0  0
   -2.9180   -6.1403    0.0000 H   0  0  0  0  0  0  0  0  0  0  0  0
    5.3483    3.3074    0.0000 H   0  0  0  0  0  0  0  0  0  0  0  0
    4.9995    4.9036    0.0000 H   0  0  0  0  0  0  0  0  0  0  0  0
    3.2332    5.1574    0.0000 H   0  0  0  0  0  0  0  0  0  0  0  0
    3.5329    6.3587    0.0000 H   0  0  0  0  0  0  0  0  0  0  0  0
    2.8867    7.3264    0.0000 H   0  0  0  0  0  0  0  0  0  0  0  0
    2.3304   10.1169    0.0000 H   0  0  0  0  0  0  0  0  0  0  0  0
    0.7072    9.3755    0.0000 H   0  0  0  0  0  0  0  0  0  0  0  0
    3.9133    6.1266    0.0000 H   0  0  0  0  0  0  0  0  0  0  0  0
    6.7311    6.4577    0.0000 H   0  0  0  0  0  0  0  0  0  0  0  0
    7.9965    9.1778    0.0000 H   0  0  0  0  0  0  0  0  0  0  0  0
    6.2735   11.6337    0.0000 H   0  0  0  0  0  0  0  0  0  0  0  0
    3.2852   11.3695    0.0000 H   0  0  0  0  0  0  0  0  0  0  0  0
    0.1664   10.6619    0.0000 H   0  0  0  0  0  0  0  0  0  0  0  0
   -0.7570   11.0128    0.0000 H   0  0  0  0  0  0  0  0  0  0  0  0
   -2.7336   13.0595    0.0000 H   0  0  0  0  0  0  0  0  0  0  0  0
   -3.6982   11.5583    0.0000 H   0  0  0  0  0  0  0  0  0  0  0  0
   -1.2190   14.0622    0.0000 H   0  0  0  0  0  0  0  0  0  0  0  0
   -4.6664   12.3299    0.0000 H   0  0  0  0  0  0  0  0  0  0  0  0
   -5.6514   12.0619    0.0000 H   0  0  0  0  0  0  0  0  0  0  0  0
   -8.6843   12.6436    0.0000 H   0  0  0  0  0  0  0  0  0  0  0  0
   -8.5844   11.0128    0.0000 H   0  0  0  0  0  0  0  0  0  0  0  0
   -5.9242   14.4767    0.0000 H   0  0  0  0  0  0  0  0  0  0  0  0
   -5.4326   12.9185    0.0000 H   0  0  0  0  0  0  0  0  0  0  0  0
   -9.1581   15.1981    0.0000 H   0  0  0  0  0  0  0  0  0  0  0  0
   -8.9404   13.4270    0.0000 H   0  0  0  0  0  0  0  0  0  0  0  0
   -5.8771   16.1472    0.0000 H   0  0  0  0  0  0  0  0  0  0  0  0
   -8.8000   19.5687    0.0000 H   0  0  0  0  0  0  0  0  0  0  0  0
   -6.3509   18.7017    0.0000 H   0  0  0  0  0  0  0  0  0  0  0  0
  -10.7754   17.8811    0.0000 H   0  0  0  0  0  0  0  0  0  0  0  0
  -10.3016   15.3266    0.0000 H   0  0  0  0  0  0  0  0  0  0  0  0
   -9.8161   11.1385    0.0000 H   0  0  0  0  0  0  0  0  0  0  0  0
  -10.6820   10.3611    0.0000 H   0  0  0  0  0  0  0  0  0  0  0  0
  -13.3649    9.4133    0.0000 H   0  0  0  0  0  0  0  0  0  0  0  0
  -12.4000    7.9122    0.0000 H   0  0  0  0  0  0  0  0  0  0  0  0
   -9.6404   11.5480    0.0000 H   0  0  0  0  0  0  0  0  0  0  0  0
  -10.3693   14.2900    0.0000 H   0  0  0  0  0  0  0  0  0  0  0  0
  -13.2418   15.1554    0.0000 H   0  0  0  0  0  0  0  0  0  0  0  0
  -15.4274   13.1005    0.0000 H   0  0  0  0  0  0  0  0  0  0  0  0
  -14.7406   10.1801    0.0000 H   0  0  0  0  0  0  0  0  0  0  0  0
  -13.5964    7.1939    0.0000 H   0  0  0  0  0  0  0  0  0  0  0  0
  -13.8123    6.2299    0.0000 H   0  0  0  0  0  0  0  0  0  0  0  0
  -15.3228    5.7511    0.0000 H   0  0  0  0  0  0  0  0  0  0  0  0
  -15.5569    3.9821    0.0000 H   0  0  0  0  0  0  0  0  0  0  0  0
  -13.9337    3.2410    0.0000 H   0  0  0  0  0  0  0  0  0  0  0  0
  -14.5596    2.1728    0.0000 H   0  0  0  0  0  0  0  0  0  0  0  0
  -14.1542    1.2360    0.0000 H   0  0  0  0  0  0  0  0  0  0  0  0
  -14.2983   -1.8488    0.0000 H   0  0  0  0  0  0  0  0  0  0  0  0
  -12.6983   -1.5179    0.0000 H   0  0  0  0  0  0  0  0  0  0  0  0
  -15.0332    1.3306    0.0000 H   0  0  0  0  0  0  0  0  0  0  0  0
  -17.7100   -1.1712    0.0000 H   0  0  0  0  0  0  0  0  0  0  0  0
  -16.7594   -2.6813    0.0000 H   0  0  0  0  0  0  0  0  0  0  0  0
  -15.0373   -2.2138    0.0000 H   0  0  0  0  0  0  0  0  0  0  0  0
  -17.8994    0.0680    0.0000 H   0  0  0  0  0  0  0  0  0  0  0  0
  -17.4432    1.7932    0.0000 H   0  0  0  0  0  0  0  0  0  0  0  0
  -15.5154    1.7490    0.0000 H   0  0  0  0  0  0  0  0  0  0  0  0
  -12.6475   -2.7548    0.0000 H   0  0  0  0  0  0  0  0  0  0  0  0
   -9.0360   -5.4013    0.0000 H   0  0  0  0  0  0  0  0  0  0  0  0
  -10.1994   -4.9196    0.0000 H   0  0  0  0  0  0  0  0  0  0  0  0
   -7.5641   -6.0047    0.0000 H   0  0  0  0  0  0  0  0  0  0  0  0
   -8.6171   -5.7209    0.0000 H   0  0  0  0  0  0  0  0  0  0  0  0
   -5.6526   -6.2231    0.0000 H   0  0  0  0  0  0  0  0  0  0  0  0
   -7.0719   -6.1195    0.0000 H   0  0  0  0  0  0  0  0  0  0  0  0
   -4.6827   -6.4100    0.0000 H   0  0  0  0  0  0  0  0  0  0  0  0
  -12.4175   -4.8470    0.0000 H   0  0  0  0  0  0  0  0  0  0  0  0
  -13.2536   -3.4432    0.0000 H   0  0  0  0  0  0  0  0  0  0  0  0
  -12.3114   -2.1085    0.0000 H   0  0  0  0  0  0  0  0  0  0  0  0
  -13.2245   -4.2886    0.0000 H   0  0  0  0  0  0  0  0  0  0  0  0
  -10.6710   -6.5204    0.0000 H   0  0  0  0  0  0  0  0  0  0  0  0
  -11.0918   -9.3079    0.0000 H   0  0  0  0  0  0  0  0  0  0  0  0
  -10.4772   -7.4800    0.0000 H   0  0  0  0  0  0  0  0  0  0  0  0
  -12.8796   -9.7797    0.0000 H   0  0  0  0  0  0  0  0  0  0  0  0
  -15.4842   -7.6657    0.0000 H   0  0  0  0  0  0  0  0  0  0  0  0
  -18.1086   -8.6951    0.0000 H   0  0  0  0  0  0  0  0  0  0  0  0
  -16.4630   -7.6899    0.0000 H   0  0  0  0  0  0  0  0  0  0  0  0
  -17.6284  -11.9735    0.0000 H   0  0  0  0  0  0  0  0  0  0  0  0
  -16.3737  -11.5800    0.0000 H   0  0  0  0  0  0  0  0  0  0  0  0
  -21.1213  -11.8816    0.0000 H   0  0  0  0  0  0  0  0  0  0  0  0
  -19.3959  -13.3690    0.0000 H   0  0  0  0  0  0  0  0  0  0  0  0
  -18.1717  -10.5430    0.0000 H   0  0  0  0  0  0  0  0  0  0  0  0
  -15.5320  -12.6131    0.0000 H   0  0  0  0  0  0  0  0  0  0  0  0
  -15.4154  -13.4066    0.0000 H   0  0  0  0  0  0  0  0  0  0  0  0
  -17.7440  -16.6083    0.0000 H   0  0  0  0  0  0  0  0  0  0  0  0
  -19.2559  -15.6605    0.0000 H   0  0  0  0  0  0  0  0  0  0  0  0
  -19.1509  -14.3497    0.0000 H   0  0  0  0  0  0  0  0  0  0  0  0
  -15.6558  -16.8709    0.0000 H   0  0  0  0  0  0  0  0  0  0  0  0
  -17.2720  -16.1144    0.0000 H   0  0  0  0  0  0  0  0  0  0  0  0
  -13.6713  -16.6436    0.0000 H   0  0  0  0  0  0  0  0  0  0  0  0
  -13.0568  -14.8158    0.0000 H   0  0  0  0  0  0  0  0  0  0  0  0
  -14.5687  -13.8680    0.0000 H   0  0  0  0  0  0  0  0  0  0  0  0
  1  2  1  0
  2  3  1  0
  3  4  2  0
  4  5  1  0
  5  6  2  0
  6  7  1  0
  7  8  2  0
  7  9  1  0
  9 10  1  0
 10 11  1  0
 11 12  2  0
  9 13  1  0
 13 14  1  0
 14 15  2  0
 15 16  1  0
 16 17  2  0
 17 18  1  0
 16 19  1  0
 14 20  1  0
 20 21  1  0
 21 22  2  0
 22 23  1  0
 23 24  2  0
 24 25  1  0
 25 26  2  0
 25 27  1  0
  1 28  2  0
  1 29  1  0
 29 30  1  0
 30 31  1  0
 31 32  1  0
 32 33  2  0
 32 34  1  0
 34 35  1  0
 35 36  1  0
 36 37  1  0
 37 38  1  0
 37 39  2  0
 35 40  1  0
 40 41  2  0
 40 42  1  0
 42 43  1  0
 43 44  1  0
 44 45  1  0
 45 46  1  0
 46 47  1  0
 46 48  2  0
 43 49  1  0
 49 50  2  0
 49 51  1  0
 51 52  1  0
 52 53  1  0
 53 54  1  0
 54 55  1  0
 54 56  1  0
 52 57  1  0
 57 58  2  0
 57 59  1  0
 60 59  1  6
 60 61  1  0
 61 62  1  0
 62 63  1  0
 63 64  1  0
 64 65  1  0
 65 66  1  0
 66 67  1  0
 60 68  1  0
 60 69  1  0
 69 70  2  0
 69 71  1  0
 71 72  1  0
 72 73  1  0
 73 74  1  0
 74 75  2  0
 75 76  1  0
 76 77  2  0
 77 78  1  0
 78 79  2  0
 72 80  1  0
 80 81  2  0
 80 82  1  0
 82 83  1  0
 83 84  1  0
 84 85  1  0
 83 86  1  0
 86 87  2  0
 86 88  1  0
 88 89  1  0
 89 90  1  0
 90 91  1  0
 91 92  1  0
 92 93  1  0
 93 94  1  0
 94 95  2  3
 94 96  1  0
 89 97  1  0
 97 98  2  0
 97 99  1  0
 99100  1  0
100101  1  0
101102  1  0
102103  2  0
103104  1  0
104105  2  0
105106  1  0
106107  2  0
100108  1  0
108109  2  0
108110  1  0
110111  1  0
111112  1  0
111113  1  0
113114  2  0
113115  1  0
115116  1  0
116117  1  0
117118  1  0
118119  1  0
118120  1  0
116121  1  0
121122  2  0
121123  1  0
123124  1  0
124125  1  0
125126  1  0
126127  1  0
127128  1  0
124129  1  0
124130  1  1
130131  2  0
130132  1  0
132133  1  0
133134  1  0
134135  1  0
135136  2  0
135137  1  0
133138  1  0
138139  2  0
138140  1  0
140141  1  0
141142  1  0
142143  1  0
143144  1  0
144145  1  0
144146  2  0
141147  1  0
147148  2  0
147149  1  0
149150  1  0
150151  1  0
151152  1  0
151153  1  0
153154  1  0
150155  1  0
155156  2  0
155157  1  0
  8  3  1  0
 79 74  1  0
107102  1  0
 11  6  1  0
 18 13  2  0
 67128  2  0
 22  9  1  0
 26 21  1  0
  2158  1  0
  4159  1  0
  5160  1  0
  8161  1  0
 15162  1  0
 17163  1  0
 18164  1  0
 19165  1  0
 23166  1  0
 24167  1  0
 26168  1  0
 27169  1  0
 29170  1  0
 30171  1  0
 30172  1  0
 31173  1  0
 31174  1  0
 34175  1  0
 35176  1  1
 36177  1  0
 36178  1  0
 38179  1  0
 38180  1  0
 42181  1  0
 43182  1  1
 44183  1  0
 44184  1  0
 45185  1  0
 45186  1  0
 47187  1  0
 47188  1  0
 51189  1  0
 52190  1  1
 53191  1  0
 53192  1  0
 54193  1  0
 55194  1  0
 55195  1  0
 55196  1  0
 56197  1  0
 56198  1  0
 56199  1  0
 59200  1  0
 61201  1  0
 61202  1  0
 62203  1  0
 62204  1  0
 63205  1  0
 63206  1  0
 64207  1  0
 64208  1  0
 65209  1  0
 65210  1  0
 66211  1  0
 66212  1  0
 67213  1  0
 68214  1  0
 68215  1  0
 68216  1  0
 71217  1  0
 72218  1  6
 73219  1  0
 73220  1  0
 75221  1  0
 76222  1  0
 77223  1  0
 78224  1  0
 79225  1  0
 82226  1  0
 83227  1  6
 84228  1  0
 84229  1  0
 85230  1  0
 88231  1  0
 89232  1  6
 90233  1  0
 90234  1  0
 91235  1  0
 91236  1  0
 92237  1  0
 92238  1  0
 93239  1  0
 95240  1  0
 95241  1  0
 96242  1  0
 96243  1  0
 99244  1  0
100245  1  6
101246  1  0
101247  1  0
103248  1  0
104249  1  0
105250  1  0
106251  1  0
107252  1  0
110253  1  0
111254  1  6
112255  1  0
112256  1  0
112257  1  0
115258  1  0
116259  1  6
117260  1  0
117261  1  0
118262  1  0
119263  1  0
119264  1  0
119265  1  0
120266  1  0
120267  1  0
120268  1  0
123269  1  0
125270  1  0
125271  1  0
126272  1  0
126273  1  0
127274  1  0
127275  1  0
128276  1  0
129277  1  0
129278  1  0
129279  1  0
132280  1  0
133281  1  1
134282  1  0
134283  1  0
140284  1  0
141285  1  6
142286  1  0
142287  1  0
143288  1  0
143289  1  0
145290  1  0
145291  1  0
149292  1  0
150293  1  1
151294  1  1
152295  1  0
152296  1  0
152297  1  0
153298  1  0
153299  1  0
154300  1  0
154301  1  0
154302  1  0
M  CHG  3  95   1 137  -1 157  -1
M  END
