
     RDKit          2D

440446  0  0  0  0  0  0  0  0999 V2000
   26.0335    6.0387    0.0000 C   0  0  0  0  0  0  0  0  0  0  0  0
   25.6423    7.4868    0.0000 N   0  0  0  0  0  0  0  0  0  0  0  0
   26.7008    8.5497    0.0000 C   0  0  0  0  0  0  0  0  0  0  0  0
   28.1504    8.1644    0.0000 C   0  0  0  0  0  0  0  0  0  0  0  0
   29.2089    9.2273    0.0000 C   0  0  0  0  0  0  0  0  0  0  0  0
   28.8177   10.6753    0.0000 C   0  0  0  0  0  0  0  0  0  0  0  0
   27.3680   11.0606    0.0000 C   0  0  0  0  0  0  0  0  0  0  0  0
   26.3095    9.9977    0.0000 C   0  0  0  0  0  0  0  0  0  0  0  0
   27.2864   12.5584    0.0000 C   0  0  0  0  0  0  0  0  0  0  0  0
   28.6857   13.0988    0.0000 O   0  0  0  0  0  0  0  0  0  0  0  0
   29.6321   11.9350    0.0000 C   0  0  0  0  0  0  0  0  0  0  0  0
   31.1298   12.0166    0.0000 O   0  0  0  0  0  0  0  0  0  0  0  0
   27.3618   14.0565    0.0000 C   0  0  0  0  0  0  0  0  0  0  0  0
   26.1021   14.8708    0.0000 C   0  0  0  0  0  0  0  0  0  0  0  0
   26.1776   16.3689    0.0000 C   0  0  0  0  0  0  0  0  0  0  0  0
   27.5127   17.0527    0.0000 C   0  0  0  0  0  0  0  0  0  0  0  0
   28.7723   16.2383    0.0000 C   0  0  0  0  0  0  0  0  0  0  0  0
   28.6969   14.7402    0.0000 C   0  0  0  0  0  0  0  0  0  0  0  0
   27.5881   18.5508    0.0000 O   0  0  0  0  0  0  0  0  0  0  0  0
   24.7670   14.1871    0.0000 O   0  0  0  0  0  0  0  0  0  0  0  0
   24.6916   12.6890    0.0000 C   0  0  0  0  0  0  0  0  0  0  0  0
   25.9513   11.8746    0.0000 C   0  0  0  0  0  0  0  0  0  0  0  0
   25.2880   10.7566    0.0000 C   0  0  0  0  0  0  0  0  0  0  0  0
   24.5760   10.3919    0.0000 C   0  0  0  0  0  0  0  0  0  0  0  0
   23.9042   10.8262    0.0000 C   0  0  0  0  0  0  0  0  0  0  0  0
   23.9444   11.6252    0.0000 C   0  0  0  0  0  0  0  0  0  0  0  0
   21.9460    9.8234    0.0000 O   0  0  0  0  0  0  0  0  0  0  0  0
   27.4832    5.6535    0.0000 S   0  0  0  0  0  0  0  0  0  0  0  0
   24.9750    4.9759    0.0000 N   0  0  0  0  0  0  0  0  0  0  0  0
   25.3662    3.5278    0.0000 C   0  0  0  0  0  0  0  0  0  0  0  0
   24.3078    2.4649    0.0000 C   0  0  0  0  0  0  0  0  0  0  0  0
   24.6990    1.0169    0.0000 C   0  0  0  0  0  0  0  0  0  0  0  0
   25.4961    1.0046    0.0000 O   0  0  0  0  0  0  0  0  0  0  0  0
   23.6405   -0.0460    0.0000 N   0  0  0  0  0  0  0  0  0  0  0  0
   24.0317   -1.4941    0.0000 C   0  0  0  0  0  0  0  0  0  0  0  0
   25.3899   -0.8573    0.0000 C   0  0  0  0  0  0  0  0  0  0  0  0
   25.5175    0.6372    0.0000 C   0  0  0  0  0  0  0  0  0  0  0  0
   26.8757    1.2739    0.0000 C   0  0  0  0  0  0  0  0  0  0  0  0
   25.1263    2.0853    0.0000 C   0  0  0  0  0  0  0  0  0  0  0  0
   23.9041   -2.9886    0.0000 C   0  0  0  0  0  0  0  0  0  0  0  0
   25.3056   -3.5232    0.0000 O   0  0  0  0  0  0  0  0  0  0  0  0
   22.5459   -3.6254    0.0000 N   0  0  0  0  0  0  0  0  0  0  0  0
   22.4183   -5.1199    0.0000 C   0  0  0  0  0  0  0  0  0  0  0  0
   23.9123   -4.9861    0.0000 C   0  0  0  0  0  0  0  0  0  0  0  0
   24.5434   -3.6253    0.0000 C   0  0  0  0  0  0  0  0  0  0  0  0
   26.0375   -3.4915    0.0000 C   0  0  0  0  0  0  0  0  0  0  0  0
   24.6711   -2.1308    0.0000 C   0  0  0  0  0  0  0  0  0  0  0  0
   21.7872   -6.4807    0.0000 C   0  0  0  0  0  0  0  0  0  0  0  0
   22.9213   -7.4624    0.0000 O   0  0  0  0  0  0  0  0  0  0  0  0
   20.2932   -6.6145    0.0000 N   0  0  0  0  0  0  0  0  0  0  0  0
   19.6620   -7.9753    0.0000 C   0  0  0  0  0  0  0  0  0  0  0  0
   21.1117   -8.3605    0.0000 C   0  0  0  0  0  0  0  0  0  0  0  0
   22.1702   -7.2977    0.0000 C   0  0  0  0  0  0  0  0  0  0  0  0
   22.3422   -9.2183    0.0000 C   0  0  0  0  0  0  0  0  0  0  0  0
   23.7004   -8.5816    0.0000 C   0  0  0  0  0  0  0  0  0  0  0  0
   18.6036   -9.0381    0.0000 C   0  0  0  0  0  0  0  0  0  0  0  0
   19.3335  -10.3485    0.0000 O   0  0  0  0  0  0  0  0  0  0  0  0
   17.1539   -8.6529    0.0000 N   0  0  0  0  0  0  0  0  0  0  0  0
   16.0954   -9.7157    0.0000 C   0  0  0  0  0  0  0  0  0  0  0  0
   17.3259  -10.5736    0.0000 C   0  0  0  0  0  0  0  0  0  0  0  0
   18.6841   -9.9368    0.0000 C   0  0  0  0  0  0  0  0  0  0  0  0
   19.9146  -10.7946    0.0000 C   0  0  0  0  0  0  0  0  0  0  0  0
   19.7425   -8.8740    0.0000 C   0  0  0  0  0  0  0  0  0  0  0  0
   14.7373  -10.3525    0.0000 C   0  0  0  0  0  0  0  0  0  0  0  0
   14.9750  -11.8335    0.0000 O   0  0  0  0  0  0  0  0  0  0  0  0
   13.5068   -9.4946    0.0000 N   0  0  0  0  0  0  0  0  0  0  0  0
   12.1486  -10.1314    0.0000 C   0  0  0  0  0  0  0  0  0  0  0  0
   13.0115  -11.3583    0.0000 C   0  0  0  0  0  0  0  0  0  0  0  0
   14.5055  -11.2245    0.0000 C   0  0  0  0  0  0  0  0  0  0  0  0
   15.3684  -12.4514    0.0000 C   0  0  0  0  0  0  0  0  0  0  0  0
   16.8676  -12.5007    0.0000 N   0  0  0  0  0  0  0  0  0  0  0  0
   14.7373  -13.8122    0.0000 O   0  0  0  0  0  0  0  0  0  0  0  0
   10.6546  -10.2652    0.0000 C   0  0  0  0  0  0  0  0  0  0  0  0
   10.3715  -11.7382    0.0000 O   0  0  0  0  0  0  0  0  0  0  0  0
    9.7917   -9.0382    0.0000 N   0  0  0  0  0  0  0  0  0  0  0  0
    8.2977   -9.1720    0.0000 C   0  0  0  0  0  0  0  0  0  0  0  0
    8.6889  -10.6201    0.0000 C   0  0  0  0  0  0  0  0  0  0  0  0
   10.1386  -11.0054    0.0000 C   0  0  0  0  0  0  0  0  0  0  0  0
   10.5298  -12.4534    0.0000 C   0  0  0  0  0  0  0  0  0  0  0  0
   11.9217  -13.0125    0.0000 N   0  0  0  0  0  0  0  0  0  0  0  0
    9.4713  -13.5163    0.0000 O   0  0  0  0  0  0  0  0  0  0  0  0
    6.8480   -8.7868    0.0000 C   0  0  0  0  0  0  0  0  0  0  0  0
    5.9270   -9.9707    0.0000 O   0  0  0  0  0  0  0  0  0  0  0  0
    6.4568   -7.3387    0.0000 N   0  0  0  0  0  0  0  0  0  0  0  0
    5.0071   -6.9535    0.0000 C   0  0  0  0  0  0  0  0  0  0  0  0
    4.8794   -8.4480    0.0000 C   0  0  0  0  0  0  0  0  0  0  0  0
    3.7766   -6.0957    0.0000 C   0  0  0  0  0  0  0  0  0  0  0  0
    2.5062   -6.8932    0.0000 O   0  0  0  0  0  0  0  0  0  0  0  0
    3.9042   -4.6011    0.0000 N   0  0  0  0  0  0  0  0  0  0  0  0
    2.6737   -3.7433    0.0000 C   0  0  0  0  0  0  0  0  0  0  0  0
    2.0426   -5.1040    0.0000 C   0  0  0  0  0  0  0  0  0  0  0  0
    2.7495   -6.4270    0.0000 C   0  0  0  0  0  0  0  0  0  0  0  0
    1.8108   -2.5163    0.0000 C   0  0  0  0  0  0  0  0  0  0  0  0
    0.4640   -3.1768    0.0000 O   0  0  0  0  0  0  0  0  0  0  0  0
    2.4419   -1.1555    0.0000 N   0  0  0  0  0  0  0  0  0  0  0  0
    1.5791    0.0714    0.0000 C   0  0  0  0  0  0  0  0  0  0  0  0
    0.8156   -1.2198    0.0000 C   0  0  0  0  0  0  0  0  0  0  0  0
   -0.2946   -2.2285    0.0000 C   0  0  0  0  0  0  0  0  0  0  0  0
   -1.6527   -2.8653    0.0000 C   0  0  0  0  0  0  0  0  0  0  0  0
   -3.1382   -3.0734    0.0000 C   0  0  0  0  0  0  0  0  0  0  0  0
    3.0523    0.3533    0.0000 C   0  0  0  0  0  0  0  0  0  0  0  0
    1.9280    1.5302    0.0000 C   0  0  0  0  0  0  0  0  0  0  0  0
    3.4226    1.4026    0.0000 O   0  0  0  0  0  0  0  0  0  0  0  0
    1.8315    3.0271    0.0000 N   0  0  0  0  0  0  0  0  0  0  0  0
    1.2980    4.4291    0.0000 C   0  0  0  0  0  0  0  0  0  0  0  0
    1.9962    5.7567    0.0000 C   0  0  0  0  0  0  0  0  0  0  0  0
    3.4950    5.8159    0.0000 C   0  0  0  0  0  0  0  0  0  0  0  0
    0.3751    5.6115    0.0000 C   0  0  0  0  0  0  0  0  0  0  0  0
    1.4067    6.7004    0.0000 O   0  0  0  0  0  0  0  0  0  0  0  0
   -0.8554    6.4693    0.0000 N   0  0  0  0  0  0  0  0  0  0  0  0
   -2.2841    6.9263    0.0000 C   0  0  0  0  0  0  0  0  0  0  0  0
   -2.8868    8.2999    0.0000 C   0  0  0  0  0  0  0  0  0  0  0  0
   -1.8578    9.3914    0.0000 C   0  0  0  0  0  0  0  0  0  0  0  0
   -3.9229    9.3846    0.0000 C   0  0  0  0  0  0  0  0  0  0  0  0
   -3.5017   10.8242    0.0000 C   0  0  0  0  0  0  0  0  0  0  0  0
   -3.7840    6.9419    0.0000 C   0  0  0  0  0  0  0  0  0  0  0  0
   -4.1717    8.3910    0.0000 O   0  0  0  0  0  0  0  0  0  0  0  0
   -5.2219    6.5147    0.0000 N   0  0  0  0  0  0  0  0  0  0  0  0
   -6.4700    5.6827    0.0000 C   0  0  0  0  0  0  0  0  0  0  0  0
   -7.9197    6.0679    0.0000 C   0  0  0  0  0  0  0  0  0  0  0  0
   -8.3109    7.5160    0.0000 C   0  0  0  0  0  0  0  0  0  0  0  0
   -9.5262    8.3953    0.0000 C   0  0  0  0  0  0  0  0  0  0  0  0
   -7.8254    8.9353    0.0000 C   0  0  0  0  0  0  0  0  0  0  0  0
   -7.4174    4.5197    0.0000 C   0  0  0  0  0  0  0  0  0  0  0  0
   -8.3491    5.6953    0.0000 O   0  0  0  0  0  0  0  0  0  0  0  0
   -7.9799    3.1292    0.0000 N   0  0  0  0  0  0  0  0  0  0  0  0
   -8.1075    1.6347    0.0000 C   0  0  0  0  0  0  0  0  0  0  0  0
   -7.7890    0.1689    0.0000 C   0  0  0  0  0  0  0  0  0  0  0  0
   -7.0526   -1.1379    0.0000 C   0  0  0  0  0  0  0  0  0  0  0  0
   -5.9636   -2.1695    0.0000 C   0  0  0  0  0  0  0  0  0  0  0  0
   -4.6190   -2.8344    0.0000 C   0  0  0  0  0  0  0  0  0  0  0  0
   -8.1537    0.1354    0.0000 C   0  0  0  0  0  0  0  0  0  0  0  0
   -8.4829   -1.3281    0.0000 C   0  0  0  0  0  0  0  0  0  0  0  0
   -9.0830   -2.7028    0.0000 C   0  0  0  0  0  0  0  0  0  0  0  0
   -9.9324   -3.9391    0.0000 C   0  0  0  0  0  0  0  0  0  0  0  0
   -8.3459    3.1156    0.0000 C   0  0  0  0  0  0  0  0  0  0  0  0
   -6.8944    3.4937    0.0000 O   0  0  0  0  0  0  0  0  0  0  0  0
   -8.8603    4.5247    0.0000 N   0  0  0  0  0  0  0  0  0  0  0  0
   -9.6320    5.8109    0.0000 C   0  0  0  0  0  0  0  0  0  0  0  0
   -9.0758    7.2040    0.0000 C   0  0  0  0  0  0  0  0  0  0  0  0
  -10.0041    8.3822    0.0000 C   0  0  0  0  0  0  0  0  0  0  0  0
   -9.4479    9.7753    0.0000 C   0  0  0  0  0  0  0  0  0  0  0  0
  -11.1737    9.3214    0.0000 C   0  0  0  0  0  0  0  0  0  0  0  0
  -10.6332    6.9279    0.0000 C   0  0  0  0  0  0  0  0  0  0  0  0
  -10.2533    8.3790    0.0000 O   0  0  0  0  0  0  0  0  0  0  0  0
  -11.8277    7.8352    0.0000 N   0  0  0  0  0  0  0  0  0  0  0  0
  -13.1723    8.5000    0.0000 C   0  0  0  0  0  0  0  0  0  0  0  0
  -13.4575    9.9727    0.0000 C   0  0  0  0  0  0  0  0  0  0  0  0
  -12.3248   10.9560    0.0000 C   0  0  0  0  0  0  0  0  0  0  0  0
  -12.6100   12.4286    0.0000 C   0  0  0  0  0  0  0  0  0  0  0  0
  -11.4773   13.4120    0.0000 O   0  0  0  0  0  0  0  0  0  0  0  0
  -14.0280   12.9179    0.0000 O   0  0  0  0  0  0  0  0  0  0  0  0
  -14.6184    8.8984    0.0000 C   0  0  0  0  0  0  0  0  0  0  0  0
  -14.5413   10.3964    0.0000 O   0  0  0  0  0  0  0  0  0  0  0  0
  -16.1138    9.0159    0.0000 N   0  0  0  0  0  0  0  0  0  0  0  0
  -17.6044    8.8482    0.0000 C   0  0  0  0  0  0  0  0  0  0  0  0
  -18.6405    9.9329    0.0000 C   0  0  0  0  0  0  0  0  0  0  0  0
  -18.2193   11.3725    0.0000 C   0  0  0  0  0  0  0  0  0  0  0  0
  -19.2554   12.4571    0.0000 C   0  0  0  0  0  0  0  0  0  0  0  0
  -18.8341   13.8968    0.0000 N   0  0  0  0  0  0  0  0  0  0  0  0
  -20.7128   12.1022    0.0000 O   0  0  0  0  0  0  0  0  0  0  0  0
  -19.0363    8.4015    0.0000 C   0  0  0  0  0  0  0  0  0  0  0  0
  -19.7814    9.7034    0.0000 O   0  0  0  0  0  0  0  0  0  0  0  0
  -20.3579    7.6919    0.0000 N   0  0  0  0  0  0  0  0  0  0  0  0
  -21.5212    6.7450    0.0000 C   0  0  0  0  0  0  0  0  0  0  0  0
  -22.9792    7.0973    0.0000 C   0  0  0  0  0  0  0  0  0  0  0  0
  -23.4032    8.5361    0.0000 C   0  0  0  0  0  0  0  0  0  0  0  0
  -24.8612    8.8884    0.0000 C   0  0  0  0  0  0  0  0  0  0  0  0
  -25.2852   10.3272    0.0000 N   0  0  0  0  0  0  0  0  0  0  0  0
  -25.8953    7.8018    0.0000 O   0  0  0  0  0  0  0  0  0  0  0  0
  -22.4843    5.5950    0.0000 C   0  0  0  0  0  0  0  0  0  0  0  0
  -23.8149    6.2874    0.0000 O   0  0  0  0  0  0  0  0  0  0  0  0
  -23.2124    4.2836    0.0000 N   0  0  0  0  0  0  0  0  0  0  0  0
  -23.6791    2.8580    0.0000 C   0  0  0  0  0  0  0  0  0  0  0  0
  -25.0962    2.3661    0.0000 C   0  0  0  0  0  0  0  0  0  0  0  0
  -26.2307    3.3473    0.0000 C   0  0  0  0  0  0  0  0  0  0  0  0
  -23.8676    1.3699    0.0000 C   0  0  0  0  0  0  0  0  0  0  0  0
  -25.3614    1.2330    0.0000 O   0  0  0  0  0  0  0  0  0  0  0  0
  -23.7711   -0.1270    0.0000 N   0  0  0  0  0  0  0  0  0  0  0  0
  -23.3930   -1.5785    0.0000 C   0  0  0  0  0  0  0  0  0  0  0  0
  -24.3192   -2.7585    0.0000 C   0  0  0  0  0  0  0  0  0  0  0  0
  -25.8041   -2.5464    0.0000 C   0  0  0  0  0  0  0  0  0  0  0  0
  -26.7302   -3.7263    0.0000 C   0  0  0  0  0  0  0  0  0  0  0  0
  -28.2152   -3.5142    0.0000 N   0  0  0  0  0  0  0  0  0  0  0  0
  -29.1413   -4.6942    0.0000 C   0  0  0  0  0  0  0  0  0  0  0  0
  -30.6262   -4.4821    0.0000 N   0  0  0  0  0  0  0  0  0  0  0  0
  -28.5825   -6.0862    0.0000 N   0  0  0  0  0  0  0  0  0  0  0  0
  -22.7471   -2.9323    0.0000 C   0  0  0  0  0  0  0  0  0  0  0  0
  -23.9297   -3.8551    0.0000 O   0  0  0  0  0  0  0  0  0  0  0  0
  -21.8566   -4.1394    0.0000 N   0  0  0  0  0  0  0  0  0  0  0  0
  -20.7537   -5.1562    0.0000 C   0  0  0  0  0  0  0  0  0  0  0  0
  -19.4784   -5.9458    0.0000 C   0  0  0  0  0  0  0  0  0  0  0  0
  -18.0767   -6.4798    0.0000 C   0  0  0  0  0  0  0  0  0  0  0  0
  -16.5993   -6.7389    0.0000 C   0  0  0  0  0  0  0  0  0  0  0  0
  -15.0995   -6.7137    0.0000 C   0  0  0  0  0  0  0  0  0  0  0  0
  -13.6315   -6.4052    0.0000 C   0  0  0  0  0  0  0  0  0  0  0  0
  -12.2486   -5.8244    0.0000 C   0  0  0  0  0  0  0  0  0  0  0  0
  -11.0005   -4.9923    0.0000 C   0  0  0  0  0  0  0  0  0  0  0  0
  -22.1545   -5.6928    0.0000 C   0  0  0  0  0  0  0  0  0  0  0  0
  -20.8949   -6.6495    0.0000 C   0  0  0  0  0  0  0  0  0  0  0  0
  -19.9189   -7.7885    0.0000 O   0  0  0  0  0  0  0  0  0  0  0  0
  -22.2588   -7.2739    0.0000 N   0  0  0  0  0  0  0  0  0  0  0  0
  -22.4000   -8.7672    0.0000 C   0  0  0  0  0  0  0  0  0  0  0  0
  -22.0219  -10.2188    0.0000 C   0  0  0  0  0  0  0  0  0  0  0  0
  -23.0900  -11.2720    0.0000 C   0  0  0  0  0  0  0  0  0  0  0  0
  -22.7119  -12.7236    0.0000 C   0  0  0  0  0  0  0  0  0  0  0  0
  -23.7800  -13.7768    0.0000 N   0  0  0  0  0  0  0  0  0  0  0  0
  -23.4019  -15.2284    0.0000 C   0  0  0  0  0  0  0  0  0  0  0  0
  -24.4700  -16.2816    0.0000 N   0  0  0  0  0  0  0  0  0  0  0  0
  -21.9558  -15.6267    0.0000 N   0  0  0  0  0  0  0  0  0  0  0  0
  -23.7639   -9.3916    0.0000 C   0  0  0  0  0  0  0  0  0  0  0  0
  -24.0860  -10.8566    0.0000 O   0  0  0  0  0  0  0  0  0  0  0  0
  -24.9865   -8.5227    0.0000 O   0  0  0  0  0  0  0  0  0  0  0  0
   24.1564    7.6925    0.0000 H   0  0  0  0  0  0  0  0  0  0  0  0
   28.5417    6.7163    0.0000 H   0  0  0  0  0  0  0  0  0  0  0  0
   30.6586    8.8420    0.0000 H   0  0  0  0  0  0  0  0  0  0  0  0
   24.8097   10.0207    0.0000 H   0  0  0  0  0  0  0  0  0  0  0  0
   24.9179   17.1833    0.0000 H   0  0  0  0  0  0  0  0  0  0  0  0
   30.1074   16.9220    0.0000 H   0  0  0  0  0  0  0  0  0  0  0  0
   29.9566   13.9258    0.0000 H   0  0  0  0  0  0  0  0  0  0  0  0
   28.9232   19.2345    0.0000 H   0  0  0  0  0  0  0  0  0  0  0  0
   27.1356    9.5622    0.0000 H   0  0  0  0  0  0  0  0  0  0  0  0
   24.2833    8.2150    0.0000 H   0  0  0  0  0  0  0  0  0  0  0  0
   22.0968   12.8196    0.0000 H   0  0  0  0  0  0  0  0  0  0  0  0
   20.6863   10.6378    0.0000 H   0  0  0  0  0  0  0  0  0  0  0  0
   23.5253    5.3611    0.0000 H   0  0  0  0  0  0  0  0  0  0  0  0
   26.7244    4.1645    0.0000 H   0  0  0  0  0  0  0  0  0  0  0  0
   26.5004    2.5461    0.0000 H   0  0  0  0  0  0  0  0  0  0  0  0
   23.3018    3.5776    0.0000 H   0  0  0  0  0  0  0  0  0  0  0  0
   22.8821    1.9985    0.0000 H   0  0  0  0  0  0  0  0  0  0  0  0
   22.1908    0.3392    0.0000 H   0  0  0  0  0  0  0  0  0  0  0  0
   22.5326   -1.4448    0.0000 H   0  0  0  0  0  0  0  0  0  0  0  0
   26.8891   -0.9066    0.0000 H   0  0  0  0  0  0  0  0  0  0  0  0
   26.1199   -2.1677    0.0000 H   0  0  0  0  0  0  0  0  0  0  0  0
   24.0355    0.8689    0.0000 H   0  0  0  0  0  0  0  0  0  0  0  0
   27.3612    2.6932    0.0000 H   0  0  0  0  0  0  0  0  0  0  0  0
   28.3697    1.4078    0.0000 H   0  0  0  0  0  0  0  0  0  0  0  0
   27.4405   -0.1157    0.0000 H   0  0  0  0  0  0  0  0  0  0  0  0
   26.1848    3.1481    0.0000 H   0  0  0  0  0  0  0  0  0  0  0  0
   24.4194    3.4083    0.0000 H   0  0  0  0  0  0  0  0  0  0  0  0
   23.8559    1.2878    0.0000 H   0  0  0  0  0  0  0  0  0  0  0  0
   21.3154   -2.7675    0.0000 H   0  0  0  0  0  0  0  0  0  0  0  0
   20.9686   -4.7347    0.0000 H   0  0  0  0  0  0  0  0  0  0  0  0
   25.3042   -5.5452    0.0000 H   0  0  0  0  0  0  0  0  0  0  0  0
   23.7847   -6.4807    0.0000 H   0  0  0  0  0  0  0  0  0  0  0  0
   23.2300   -2.9008    0.0000 H   0  0  0  0  0  0  0  0  0  0  0  0
   26.9791   -2.3239    0.0000 H   0  0  0  0  0  0  0  0  0  0  0  0
   27.4871   -3.8768    0.0000 H   0  0  0  0  0  0  0  0  0  0  0  0
   26.0929   -4.9905    0.0000 H   0  0  0  0  0  0  0  0  0  0  0  0
   26.0292   -1.4940    0.0000 H   0  0  0  0  0  0  0  0  0  0  0  0
   24.6419   -0.6311    0.0000 H   0  0  0  0  0  0  0  0  0  0  0  0
   23.2045   -2.4457    0.0000 H   0  0  0  0  0  0  0  0  0  0  0  0
   19.4303   -5.3876    0.0000 H   0  0  0  0  0  0  0  0  0  0  0  0
   18.5453   -6.9738    0.0000 H   0  0  0  0  0  0  0  0  0  0  0  0
   20.8286   -9.8336    0.0000 H   0  0  0  0  0  0  0  0  0  0  0  0
   23.6560   -7.5033    0.0000 H   0  0  0  0  0  0  0  0  0  0  0  0
   22.8013   -5.9369    0.0000 H   0  0  0  0  0  0  0  0  0  0  0  0
   21.2206   -6.1422    0.0000 H   0  0  0  0  0  0  0  0  0  0  0  0
   23.2051  -10.4453    0.0000 H   0  0  0  0  0  0  0  0  0  0  0  0
   21.4212  -10.4023    0.0000 H   0  0  0  0  0  0  0  0  0  0  0  0
   24.9309   -9.4394    0.0000 H   0  0  0  0  0  0  0  0  0  0  0  0
   24.7588   -7.5188    0.0000 H   0  0  0  0  0  0  0  0  0  0  0  0
   23.3346   -7.1269    0.0000 H   0  0  0  0  0  0  0  0  0  0  0  0
   16.7627   -7.2048    0.0000 H   0  0  0  0  0  0  0  0  0  0  0  0
   15.2325   -8.4888    0.0000 H   0  0  0  0  0  0  0  0  0  0  0  0
   18.0328  -11.8965    0.0000 H   0  0  0  0  0  0  0  0  0  0  0  0
   16.4049  -11.7575    0.0000 H   0  0  0  0  0  0  0  0  0  0  0  0
   18.1437   -8.5375    0.0000 H   0  0  0  0  0  0  0  0  0  0  0  0
   21.4107  -10.6870    0.0000 H   0  0  0  0  0  0  0  0  0  0  0  0
   20.7775  -12.0216    0.0000 H   0  0  0  0  0  0  0  0  0  0  0  0
   18.9935  -11.9786    0.0000 H   0  0  0  0  0  0  0  0  0  0  0  0
   21.1922   -9.2592    0.0000 H   0  0  0  0  0  0  0  0  0  0  0  0
   20.6842   -7.7064    0.0000 H   0  0  0  0  0  0  0  0  0  0  0  0
   18.4166   -8.1725    0.0000 H   0  0  0  0  0  0  0  0  0  0  0  0
   13.6344   -8.0001    0.0000 H   0  0  0  0  0  0  0  0  0  0  0  0
   11.7574   -8.6833    0.0000 H   0  0  0  0  0  0  0  0  0  0  0  0
   13.4027  -12.8064    0.0000 H   0  0  0  0  0  0  0  0  0  0  0  0
   11.7411  -12.1558    0.0000 H   0  0  0  0  0  0  0  0  0  0  0  0
   15.8637  -10.5878    0.0000 H   0  0  0  0  0  0  0  0  0  0  0  0
   14.4763   -9.7248    0.0000 H   0  0  0  0  0  0  0  0  0  0  0  0
   17.7253  -13.5446    0.0000 H   0  0  0  0  0  0  0  0  0  0  0  0
   17.8485  -11.1542    0.0000 H   0  0  0  0  0  0  0  0  0  0  0  0
   10.4228   -7.6775    0.0000 H   0  0  0  0  0  0  0  0  0  0  0  0
    8.4253   -7.6775    0.0000 H   0  0  0  0  0  0  0  0  0  0  0  0
    8.5612  -12.1147    0.0000 H   0  0  0  0  0  0  0  0  0  0  0  0
    7.1949  -10.7539    0.0000 H   0  0  0  0  0  0  0  0  0  0  0  0
   11.6326  -10.8715    0.0000 H   0  0  0  0  0  0  0  0  0  0  0  0
   10.6241   -9.5861    0.0000 H   0  0  0  0  0  0  0  0  0  0  0  0
   12.3707  -14.2868    0.0000 H   0  0  0  0  0  0  0  0  0  0  0  0
   13.3040  -12.0827    0.0000 H   0  0  0  0  0  0  0  0  0  0  0  0
    7.5152   -6.2759    0.0000 H   0  0  0  0  0  0  0  0  0  0  0  0
    5.6382   -5.5927    0.0000 H   0  0  0  0  0  0  0  0  0  0  0  0
    5.9962   -9.4495    0.0000 H   0  0  0  0  0  0  0  0  0  0  0  0
    4.2483   -9.8088    0.0000 H   0  0  0  0  0  0  0  0  0  0  0  0
    3.4297   -8.0628    0.0000 H   0  0  0  0  0  0  0  0  0  0  0  0
    5.2624   -3.9644    0.0000 H   0  0  0  0  0  0  0  0  0  0  0  0
    3.7322   -2.6804    0.0000 H   0  0  0  0  0  0  0  0  0  0  0  0
    0.9841   -6.1669    0.0000 H   0  0  0  0  0  0  0  0  0  0  0  0
    0.8121   -4.2462    0.0000 H   0  0  0  0  0  0  0  0  0  0  0  0
    2.2744   -7.6917    0.0000 H   0  0  0  0  0  0  0  0  0  0  0  0
    4.1360   -7.1888    0.0000 H   0  0  0  0  0  0  0  0  0  0  0  0
    4.2083   -5.5964    0.0000 H   0  0  0  0  0  0  0  0  0  0  0  0
    3.9411   -1.2048    0.0000 H   0  0  0  0  0  0  0  0  0  0  0  0
    2.2223   -1.7405    0.0000 H   0  0  0  0  0  0  0  0  0  0  0  0
    1.1011   -2.6923    0.0000 H   0  0  0  0  0  0  0  0  0  0  0  0
    0.6400   -3.4018    0.0000 H   0  0  0  0  0  0  0  0  0  0  0  0
   -0.0901   -3.7145    0.0000 H   0  0  0  0  0  0  0  0  0  0  0  0
   -0.6412   -3.9729    0.0000 H   0  0  0  0  0  0  0  0  0  0  0  0
   -2.0740   -4.3049    0.0000 H   0  0  0  0  0  0  0  0  0  0  0  0
   -3.1538   -4.5733    0.0000 H   0  0  0  0  0  0  0  0  0  0  0  0
    4.1641   -0.6536    0.0000 H   0  0  0  0  0  0  0  0  0  0  0  0
    4.3403    1.1221    0.0000 H   0  0  0  0  0  0  0  0  0  0  0  0
    2.8740    1.8427    0.0000 H   0  0  0  0  0  0  0  0  0  0  0  0
    3.2973    3.3457    0.0000 H   0  0  0  0  0  0  0  0  0  0  0  0
    2.7731    4.1569    0.0000 H   0  0  0  0  0  0  0  0  0  0  0  0
    2.1982    7.2430    0.0000 H   0  0  0  0  0  0  0  0  0  0  0  0
    0.7206    6.5458    0.0000 H   0  0  0  0  0  0  0  0  0  0  0  0
    4.1932    7.1435    0.0000 H   0  0  0  0  0  0  0  0  0  0  0  0
    4.9237    5.3588    0.0000 H   0  0  0  0  0  0  0  0  0  0  0  0
    3.4757    4.3160    0.0000 H   0  0  0  0  0  0  0  0  0  0  0  0
   -0.1906    7.8139    0.0000 H   0  0  0  0  0  0  0  0  0  0  0  0
   -1.1516    7.9099    0.0000 H   0  0  0  0  0  0  0  0  0  0  0  0
   -4.2991    7.7946    0.0000 H   0  0  0  0  0  0  0  0  0  0  0  0
   -2.4140   10.9618    0.0000 H   0  0  0  0  0  0  0  0  0  0  0  0
   -0.7505   10.3407    0.0000 H   0  0  0  0  0  0  0  0  0  0  0  0
   -0.8379    8.5584    0.0000 H   0  0  0  0  0  0  0  0  0  0  0  0
   -5.2675   10.0494    0.0000 H   0  0  0  0  0  0  0  0  0  0  0  0
   -4.9519    8.2931    0.0000 H   0  0  0  0  0  0  0  0  0  0  0  0
   -4.5378   11.9088    0.0000 H   0  0  0  0  0  0  0  0  0  0  0  0
   -2.6134   12.0329    0.0000 H   0  0  0  0  0  0  0  0  0  0  0  0
   -2.0361   10.5045    0.0000 H   0  0  0  0  0  0  0  0  0  0  0  0
   -5.8587    7.8729    0.0000 H   0  0  0  0  0  0  0  0  0  0  0  0
   -6.5329    7.1814    0.0000 H   0  0  0  0  0  0  0  0  0  0  0  0
   -9.4189    6.1172    0.0000 H   0  0  0  0  0  0  0  0  0  0  0  0
   -8.5746    4.7184    0.0000 H   0  0  0  0  0  0  0  0  0  0  0  0
   -6.8443    7.8310    0.0000 H   0  0  0  0  0  0  0  0  0  0  0  0
  -10.2634    9.2660    0.0000 H   0  0  0  0  0  0  0  0  0  0  0  0
  -11.2546    7.7674    0.0000 H   0  0  0  0  0  0  0  0  0  0  0  0
  -10.5770    6.6686    0.0000 H   0  0  0  0  0  0  0  0  0  0  0  0
   -6.8251    9.6473    0.0000 H   0  0  0  0  0  0  0  0  0  0  0  0
   -8.3904   10.5174    0.0000 H   0  0  0  0  0  0  0  0  0  0  0  0
   -9.5652    9.5940    0.0000 H   0  0  0  0  0  0  0  0  0  0  0  0
   -9.4387    3.4782    0.0000 H   0  0  0  0  0  0  0  0  0  0  0  0
   -8.5233   -1.1391    0.0000 H   0  0  0  0  0  0  0  0  0  0  0  0
   -9.2561    0.4814    0.0000 H   0  0  0  0  0  0  0  0  0  0  0  0
   -7.3687   -2.6042    0.0000 H   0  0  0  0  0  0  0  0  0  0  0  0
   -8.3993   -1.7983    0.0000 H   0  0  0  0  0  0  0  0  0  0  0  0
   -6.0166   -3.6686    0.0000 H   0  0  0  0  0  0  0  0  0  0  0  0
   -7.0559   -3.1976    0.0000 H   0  0  0  0  0  0  0  0  0  0  0  0
   -5.0761   -4.2631    0.0000 H   0  0  0  0  0  0  0  0  0  0  0  0
   -6.7899    0.7598    0.0000 H   0  0  0  0  0  0  0  0  0  0  0  0
   -7.1125   -0.9444    0.0000 H   0  0  0  0  0  0  0  0  0  0  0  0
   -6.9951   -1.5191    0.0000 H   0  0  0  0  0  0  0  0  0  0  0  0
   -7.6648   -2.5854    0.0000 H   0  0  0  0  0  0  0  0  0  0  0  0
   -7.6582   -3.1719    0.0000 H   0  0  0  0  0  0  0  0  0  0  0  0
   -8.3525   -4.0129    0.0000 H   0  0  0  0  0  0  0  0  0  0  0  0
   -8.7824   -4.9022    0.0000 H   0  0  0  0  0  0  0  0  0  0  0  0
   -7.5953    5.3308    0.0000 H   0  0  0  0  0  0  0  0  0  0  0  0
   -8.2103    6.2894    0.0000 H   0  0  0  0  0  0  0  0  0  0  0  0
   -8.0767    8.3228    0.0000 H   0  0  0  0  0  0  0  0  0  0  0  0
   -7.9062    6.2648    0.0000 H   0  0  0  0  0  0  0  0  0  0  0  0
  -11.3379    7.6958    0.0000 H   0  0  0  0  0  0  0  0  0  0  0  0
  -10.0636   11.1431    0.0000 H   0  0  0  0  0  0  0  0  0  0  0  0
   -8.5926   11.0075    0.0000 H   0  0  0  0  0  0  0  0  0  0  0  0
   -8.0194    9.3177    0.0000 H   0  0  0  0  0  0  0  0  0  0  0  0
  -11.2663   10.7012    0.0000 H   0  0  0  0  0  0  0  0  0  0  0  0
  -12.7327    9.6845    0.0000 H   0  0  0  0  0  0  0  0  0  0  0  0
  -12.2980    8.0707    0.0000 H   0  0  0  0  0  0  0  0  0  0  0  0
  -11.0380    9.1105    0.0000 H   0  0  0  0  0  0  0  0  0  0  0  0
  -12.0992    9.5482    0.0000 H   0  0  0  0  0  0  0  0  0  0  0  0
  -14.0667   11.3434    0.0000 H   0  0  0  0  0  0  0  0  0  0  0  0
  -14.9465    9.7909    0.0000 H   0  0  0  0  0  0  0  0  0  0  0  0
  -11.0956   11.8156    0.0000 H   0  0  0  0  0  0  0  0  0  0  0  0
  -11.4021    9.7734    0.0000 H   0  0  0  0  0  0  0  0  0  0  0  0
  -15.9560   10.5076    0.0000 H   0  0  0  0  0  0  0  0  0  0  0  0
  -16.9246   10.1854    0.0000 H   0  0  0  0  0  0  0  0  0  0  0  0
  -19.8941   10.7567    0.0000 H   0  0  0  0  0  0  0  0  0  0  0  0
  -19.7948    8.9750    0.0000 H   0  0  0  0  0  0  0  0  0  0  0  0
  -17.3310   12.5812    0.0000 H   0  0  0  0  0  0  0  0  0  0  0  0
  -16.7537   11.0528    0.0000 H   0  0  0  0  0  0  0  0  0  0  0  0
  -19.8703   14.9814    0.0000 H   0  0  0  0  0  0  0  0  0  0  0  0
  -17.3767   14.2518    0.0000 H   0  0  0  0  0  0  0  0  0  0  0  0
  -21.0316    9.0321    0.0000 H   0  0  0  0  0  0  0  0  0  0  0  0
  -21.6722    8.2374    0.0000 H   0  0  0  0  0  0  0  0  0  0  0  0
  -24.4792    7.1126    0.0000 H   0  0  0  0  0  0  0  0  0  0  0  0
  -23.4325    5.6674    0.0000 H   0  0  0  0  0  0  0  0  0  0  0  0
  -23.3094   10.0332    0.0000 H   0  0  0  0  0  0  0  0  0  0  0  0
  -21.9974    9.0595    0.0000 H   0  0  0  0  0  0  0  0  0  0  0  0
  -26.7432   10.6795    0.0000 H   0  0  0  0  0  0  0  0  0  0  0  0
  -24.2511   11.4138    0.0000 H   0  0  0  0  0  0  0  0  0  0  0  0
  -24.5037    5.0468    0.0000 H   0  0  0  0  0  0  0  0  0  0  0  0
  -24.6130    4.0318    0.0000 H   0  0  0  0  0  0  0  0  0  0  0  0
  -26.3662    1.5681    0.0000 H   0  0  0  0  0  0  0  0  0  0  0  0
  -24.7044    0.9182    0.0000 H   0  0  0  0  0  0  0  0  0  0  0  0
  -27.6477    2.8554    0.0000 H   0  0  0  0  0  0  0  0  0  0  0  0
  -26.9612    4.6574    0.0000 H   0  0  0  0  0  0  0  0  0  0  0  0
  -25.3311    4.5476    0.0000 H   0  0  0  0  0  0  0  0  0  0  0  0
  -25.2700   -0.1831    0.0000 H   0  0  0  0  0  0  0  0  0  0  0  0
  -24.8133   -1.0960    0.0000 H   0  0  0  0  0  0  0  0  0  0  0  0
  -24.7859   -4.1840    0.0000 H   0  0  0  0  0  0  0  0  0  0  0  0
  -23.2067   -3.7647    0.0000 H   0  0  0  0  0  0  0  0  0  0  0  0
  -27.1269   -1.8392    0.0000 H   0  0  0  0  0  0  0  0  0  0  0  0
  -25.6962   -1.0503    0.0000 H   0  0  0  0  0  0  0  0  0  0  0  0
  -27.1970   -5.1519    0.0000 H   0  0  0  0  0  0  0  0  0  0  0  0
  -25.5035   -4.5895    0.0000 H   0  0  0  0  0  0  0  0  0  0  0  0
  -28.7739   -2.1222    0.0000 H   0  0  0  0  0  0  0  0  0  0  0  0
  -31.5524   -5.6620    0.0000 H   0  0  0  0  0  0  0  0  0  0  0  0
  -31.1850   -3.0901    0.0000 H   0  0  0  0  0  0  0  0  0  0  0  0
  -29.5087   -7.2662    0.0000 H   0  0  0  0  0  0  0  0  0  0  0  0
  -27.0976   -6.2983    0.0000 H   0  0  0  0  0  0  0  0  0  0  0  0
  -23.0873   -4.9970    0.0000 H   0  0  0  0  0  0  0  0  0  0  0  0
  -19.3345   -7.4389    0.0000 H   0  0  0  0  0  0  0  0  0  0  0  0
  -20.5228   -7.0225    0.0000 H   0  0  0  0  0  0  0  0  0  0  0  0
  -17.8313   -7.9596    0.0000 H   0  0  0  0  0  0  0  0  0  0  0  0
  -18.8984   -7.7347    0.0000 H   0  0  0  0  0  0  0  0  0  0  0  0
  -16.0782   -8.1455    0.0000 H   0  0  0  0  0  0  0  0  0  0  0  0
  -17.3335   -8.0469    0.0000 H   0  0  0  0  0  0  0  0  0  0  0  0
  -14.3217   -7.9963    0.0000 H   0  0  0  0  0  0  0  0  0  0  0  0
  -15.5729   -8.1371    0.0000 H   0  0  0  0  0  0  0  0  0  0  0  0
  -12.6251   -7.5174    0.0000 H   0  0  0  0  0  0  0  0  0  0  0  0
  -13.8271   -7.8924    0.0000 H   0  0  0  0  0  0  0  0  0  0  0  0
  -10.9488   -6.5732    0.0000 H   0  0  0  0  0  0  0  0  0  0  0  0
  -12.1591   -7.3217    0.0000 H   0  0  0  0  0  0  0  0  0  0  0  0
  -10.0536   -6.1557    0.0000 H   0  0  0  0  0  0  0  0  0  0  0  0
  -22.7415   -7.0731    0.0000 H   0  0  0  0  0  0  0  0  0  0  0  0
  -23.6543   -5.7180    0.0000 H   0  0  0  0  0  0  0  0  0  0  0  0
  -22.7876   -4.3329    0.0000 H   0  0  0  0  0  0  0  0  0  0  0  0
  -23.5783   -6.5605    0.0000 H   0  0  0  0  0  0  0  0  0  0  0  0
  -20.9048   -8.6470    0.0000 H   0  0  0  0  0  0  0  0  0  0  0  0
  -21.0260  -11.3405    0.0000 H   0  0  0  0  0  0  0  0  0  0  0  0
  -20.6581   -9.5944    0.0000 H   0  0  0  0  0  0  0  0  0  0  0  0
  -24.4539  -11.8964    0.0000 H   0  0  0  0  0  0  0  0  0  0  0  0
  -24.3277  -10.4246    0.0000 H   0  0  0  0  0  0  0  0  0  0  0  0
  -21.8602  -13.9583    0.0000 H   0  0  0  0  0  0  0  0  0  0  0  0
  -21.2821  -12.2701    0.0000 H   0  0  0  0  0  0  0  0  0  0  0  0
  -25.2261  -13.3784    0.0000 H   0  0  0  0  0  0  0  0  0  0  0  0
  -24.0919  -17.7331    0.0000 H   0  0  0  0  0  0  0  0  0  0  0  0
  -25.9161  -15.8832    0.0000 H   0  0  0  0  0  0  0  0  0  0  0  0
  -21.5777  -17.0783    0.0000 H   0  0  0  0  0  0  0  0  0  0  0  0
  -20.8877  -14.5735    0.0000 H   0  0  0  0  0  0  0  0  0  0  0  0
  1  2  1  0
  2  3  1  0
  3  4  2  0
  4  5  1  0
  5  6  2  0
  6  7  1  0
  7  8  2  0
  7  9  1  0
  9 10  1  0
 10 11  1  0
 11 12  2  0
  9 13  1  0
 13 14  1  0
 14 15  2  0
 15 16  1  0
 16 17  2  0
 17 18  1  0
 16 19  1  0
 14 20  1  0
 20 21  1  0
 21 22  2  0
 22 23  1  0
 23 24  2  0
 24 25  1  0
 25 26  2  0
 25 27  1  0
  1 28  2  0
  1 29  1  0
 29 30  1  0
 30 31  1  0
 31 32  1  0
 32 33  2  0
 32 34  1  0
 34 35  1  0
 35 36  1  0
 36 37  1  0
 37 38  1  0
 37 39  1  0
 35 40  1  0
 40 41  2  0
 40 42  1  0
 42 43  1  0
 43 44  1  0
 44 45  1  0
 45 46  1  0
 45 47  1  0
 43 48  1  0
 48 49  2  0
 48 50  1  0
 50 51  1  0
 51 52  1  0
 52 53  1  0
 52 54  1  0
 54 55  1  0
 51 56  1  0
 56 57  2  0
 56 58  1  0
 58 59  1  0
 59 60  1  0
 60 61  1  0
 61 62  1  0
 61 63  1  0
 59 64  1  0
 64 65  2  0
 64 66  1  0
 66 67  1  0
 67 68  1  0
 68 69  1  0
 69 70  1  0
 70 71  1  0
 70 72  2  0
 67 73  1  0
 73 74  2  0
 73 75  1  0
 75 76  1  0
 76 77  1  0
 77 78  1  0
 78 79  1  0
 79 80  1  0
 79 81  2  0
 76 82  1  0
 82 83  2  0
 82 84  1  0
 84 85  1  0
 85 86  1  0
 85 87  1  0
 87 88  2  0
 87 89  1  0
 89 90  1  0
 90 91  1  0
 91 92  1  0
 90 93  1  0
 93 94  2  0
 93 95  1  0
 96 95  1  1
 96 97  1  0
 97 98  1  0
 98 99  1  0
 99100  1  0
 96101  1  0
 96102  1  0
102103  2  0
102104  1  0
104105  1  0
105106  1  0
106107  1  0
105108  1  0
108109  2  0
108110  1  0
110111  1  0
111112  1  0
112113  1  0
112114  1  0
114115  1  0
111116  1  0
116117  2  0
116118  1  0
118119  1  0
119120  1  0
120121  1  0
121122  1  0
121123  1  0
119124  1  0
124125  2  0
124126  1  0
126127  1  0
127128  1  0
128129  1  0
129130  1  0
130131  1  0
127132  1  0
132133  1  0
133134  1  0
134135  1  0
127136  1  0
136137  2  0
136138  1  0
138139  1  0
139140  1  0
140141  1  0
141142  1  0
141143  1  0
139144  1  0
144145  2  0
144146  1  0
146147  1  0
147148  1  0
148149  1  0
149150  1  0
150151  2  0
150152  1  0
147153  1  0
153154  2  0
153155  1  0
155156  1  0
156157  1  0
157158  1  0
158159  1  0
159160  1  0
159161  2  0
156162  1  0
162163  2  0
162164  1  0
164165  1  0
165166  1  0
166167  1  0
167168  1  0
168169  1  0
168170  2  0
165171  1  0
171172  2  0
171173  1  0
173174  1  0
174175  1  0
175176  1  0
174177  1  0
177178  2  0
177179  1  0
179180  1  0
180181  1  0
181182  1  0
182183  1  0
183184  1  0
184185  1  0
185186  2  3
185187  1  0
180188  1  0
188189  2  0
188190  1  0
190191  1  0
191192  1  0
192193  1  0
193194  1  0
194195  1  0
195196  1  0
196197  1  0
197198  1  0
191199  1  0
191200  1  1
200201  2  0
200202  1  0
202203  1  0
203204  1  0
204205  1  0
205206  1  0
206207  1  0
207208  1  0
208209  2  3
208210  1  0
203211  1  0
211212  2  0
211213  1  0
  8  3  1  0
 11  6  1  0
 18 13  2  0
100131  2  0
 22  9  1  0
135198  2  0
 26 21  1  0
  2214  1  0
  4215  1  0
  5216  1  0
  8217  1  0
 15218  1  0
 17219  1  0
 18220  1  0
 19221  1  0
 23222  1  0
 24223  1  0
 26224  1  0
 27225  1  0
 29226  1  0
 30227  1  0
 30228  1  0
 31229  1  0
 31230  1  0
 34231  1  0
 35232  1  1
 36233  1  0
 36234  1  0
 37235  1  0
 38236  1  0
 38237  1  0
 38238  1  0
 39239  1  0
 39240  1  0
 39241  1  0
 42242  1  0
 43243  1  1
 44244  1  0
 44245  1  0
 45246  1  0
 46247  1  0
 46248  1  0
 46249  1  0
 47250  1  0
 47251  1  0
 47252  1  0
 50253  1  0
 51254  1  1
 52255  1  6
 53256  1  0
 53257  1  0
 53258  1  0
 54259  1  0
 54260  1  0
 55261  1  0
 55262  1  0
 55263  1  0
 58264  1  0
 59265  1  1
 60266  1  0
 60267  1  0
 61268  1  0
 62269  1  0
 62270  1  0
 62271  1  0
 63272  1  0
 63273  1  0
 63274  1  0
 66275  1  0
 67276  1  1
 68277  1  0
 68278  1  0
 69279  1  0
 69280  1  0
 71281  1  0
 71282  1  0
 75283  1  0
 76284  1  1
 77285  1  0
 77286  1  0
 78287  1  0
 78288  1  0
 80289  1  0
 80290  1  0
 84291  1  0
 85292  1  1
 86293  1  0
 86294  1  0
 86295  1  0
 89296  1  0
 90297  1  1
 91298  1  0
 91299  1  0
 92300  1  0
 92301  1  0
 92302  1  0
 95303  1  0
 97304  1  0
 97305  1  0
 98306  1  0
 98307  1  0
 99308  1  0
 99309  1  0
100310  1  0
101311  1  0
101312  1  0
101313  1  0
104314  1  0
105315  1  6
106316  1  0
106317  1  0
107318  1  0
107319  1  0
107320  1  0
110321  1  0
111322  1  6
112323  1  1
113324  1  0
113325  1  0
113326  1  0
114327  1  0
114328  1  0
115329  1  0
115330  1  0
115331  1  0
118332  1  0
119333  1  6
120334  1  0
120335  1  0
121336  1  0
122337  1  0
122338  1  0
122339  1  0
123340  1  0
123341  1  0
123342  1  0
126343  1  0
128344  1  0
128345  1  0
129346  1  0
129347  1  0
130348  1  0
130349  1  0
131350  1  0
132351  1  0
132352  1  0
133353  1  0
133354  1  0
134355  1  0
134356  1  0
135357  1  0
138358  1  0
139359  1  6
140360  1  0
140361  1  0
141362  1  0
142363  1  0
142364  1  0
142365  1  0
143366  1  0
143367  1  0
143368  1  0
146369  1  0
147370  1  6
148371  1  0
148372  1  0
149373  1  0
149374  1  0
155375  1  0
156376  1  6
157377  1  0
157378  1  0
158379  1  0
158380  1  0
160381  1  0
160382  1  0
164383  1  0
165384  1  6
166385  1  0
166386  1  0
167387  1  0
167388  1  0
169389  1  0
169390  1  0
173391  1  0
174392  1  6
175393  1  0
175394  1  0
176395  1  0
176396  1  0
176397  1  0
179398  1  0
180399  1  6
181400  1  0
181401  1  0
182402  1  0
182403  1  0
183404  1  0
183405  1  0
184406  1  0
186407  1  0
186408  1  0
187409  1  0
187410  1  0
190411  1  0
192412  1  0
192413  1  0
193414  1  0
193415  1  0
194416  1  0
194417  1  0
195418  1  0
195419  1  0
196420  1  0
196421  1  0
197422  1  0
197423  1  0
198424  1  0
199425  1  0
199426  1  0
199427  1  0
202428  1  0
203429  1  1
204430  1  0
204431  1  0
205432  1  0
205433  1  0
206434  1  0
206435  1  0
207436  1  0
209437  1  0
209438  1  0
210439  1  0
210440  1  0
M  CHG  4 152  -1 186   1 209   1 213  -1
M  END
