
     RDKit          2D

350359  0  0  0  0  0  0  0  0999 V2000
   22.1585   -3.0096    0.0000 C   0  0  0  0  0  0  0  0  0  0  0  0
   23.6443   -2.8034    0.0000 N   0  0  0  0  0  0  0  0  0  0  0  0
   24.5657   -3.9870    0.0000 C   0  0  0  0  0  0  0  0  0  0  0  0
   24.0014   -5.3768    0.0000 C   0  0  0  0  0  0  0  0  0  0  0  0
   24.9228   -6.5605    0.0000 C   0  0  0  0  0  0  0  0  0  0  0  0
   26.4086   -6.3543    0.0000 C   0  0  0  0  0  0  0  0  0  0  0  0
   26.9729   -4.9645    0.0000 C   0  0  0  0  0  0  0  0  0  0  0  0
   26.0515   -3.7809    0.0000 C   0  0  0  0  0  0  0  0  0  0  0  0
   28.4691   -5.0718    0.0000 C   0  0  0  0  0  0  0  0  0  0  0  0
   28.8294   -6.5278    0.0000 O   0  0  0  0  0  0  0  0  0  0  0  0
   27.5560   -7.3205    0.0000 C   0  0  0  0  0  0  0  0  0  0  0  0
   27.4487   -8.8166    0.0000 O   0  0  0  0  0  0  0  0  0  0  0  0
   29.9458   -5.3348    0.0000 C   0  0  0  0  0  0  0  0  0  0  0  0
   30.9120   -4.1874    0.0000 C   0  0  0  0  0  0  0  0  0  0  0  0
   32.3888   -4.4505    0.0000 C   0  0  0  0  0  0  0  0  0  0  0  0
   32.8993   -5.8609    0.0000 C   0  0  0  0  0  0  0  0  0  0  0  0
   31.9332   -7.0083    0.0000 C   0  0  0  0  0  0  0  0  0  0  0  0
   30.4564   -6.7452    0.0000 C   0  0  0  0  0  0  0  0  0  0  0  0
   34.3761   -6.1239    0.0000 O   0  0  0  0  0  0  0  0  0  0  0  0
   30.4014   -2.7770    0.0000 O   0  0  0  0  0  0  0  0  0  0  0  0
   28.9247   -2.5139    0.0000 C   0  0  0  0  0  0  0  0  0  0  0  0
   27.9585   -3.6613    0.0000 C   0  0  0  0  0  0  0  0  0  0  0  0
   26.9326   -2.8628    0.0000 C   0  0  0  0  0  0  0  0  0  0  0  0
   26.6603   -2.1106    0.0000 C   0  0  0  0  0  0  0  0  0  0  0  0
   27.1756   -1.4987    0.0000 C   0  0  0  0  0  0  0  0  0  0  0  0
   27.9632   -1.6390    0.0000 C   0  0  0  0  0  0  0  0  0  0  0  0
   26.4268    0.5700    0.0000 O   0  0  0  0  0  0  0  0  0  0  0  0
   21.5942   -4.3994    0.0000 S   0  0  0  0  0  0  0  0  0  0  0  0
   21.2371   -1.8260    0.0000 N   0  0  0  0  0  0  0  0  0  0  0  0
   19.7513   -2.0321    0.0000 C   0  0  0  0  0  0  0  0  0  0  0  0
   18.8299   -0.8485    0.0000 C   0  0  0  0  0  0  0  0  0  0  0  0
   17.3441   -1.0547    0.0000 C   0  0  0  0  0  0  0  0  0  0  0  0
   17.2319   -1.8439    0.0000 O   0  0  0  0  0  0  0  0  0  0  0  0
   16.4227    0.1290    0.0000 N   0  0  0  0  0  0  0  0  0  0  0  0
   14.9369   -0.0772    0.0000 C   0  0  0  0  0  0  0  0  0  0  0  0
   15.3980   -1.5046    0.0000 C   0  0  0  0  0  0  0  0  0  0  0  0
   16.8647   -1.8190    0.0000 C   0  0  0  0  0  0  0  0  0  0  0  0
   17.3257   -3.2464    0.0000 C   0  0  0  0  0  0  0  0  0  0  0  0
   18.3504   -1.6129    0.0000 C   0  0  0  0  0  0  0  0  0  0  0  0
   13.4703    0.2372    0.0000 C   0  0  0  0  0  0  0  0  0  0  0  0
   12.6078   -0.9900    0.0000 O   0  0  0  0  0  0  0  0  0  0  0  0
   13.0092    1.6646    0.0000 N   0  0  0  0  0  0  0  0  0  0  0  0
   11.5426    1.9790    0.0000 C   0  0  0  0  0  0  0  0  0  0  0  0
   11.4876    0.4800    0.0000 C   0  0  0  0  0  0  0  0  0  0  0  0
   12.6516   -0.4660    0.0000 O   0  0  0  0  0  0  0  0  0  0  0  0
   10.2719    2.7761    0.0000 C   0  0  0  0  0  0  0  0  0  0  0  0
    9.2859    1.6457    0.0000 O   0  0  0  0  0  0  0  0  0  0  0  0
   10.3268    4.2751    0.0000 N   0  0  0  0  0  0  0  0  0  0  0  0
    9.0562    5.0722    0.0000 C   0  0  0  0  0  0  0  0  0  0  0  0
    8.8522    3.5861    0.0000 C   0  0  0  0  0  0  0  0  0  0  0  0
    8.2193    2.2262    0.0000 C   0  0  0  0  0  0  0  0  0  0  0  0
    7.2137    1.1132    0.0000 C   0  0  0  0  0  0  0  0  0  0  0  0
    5.9247    0.3461    0.0000 C   0  0  0  0  0  0  0  0  0  0  0  0
   10.3053    5.9026    0.0000 C   0  0  0  0  0  0  0  0  0  0  0  0
    8.8130    6.5524    0.0000 C   0  0  0  0  0  0  0  0  0  0  0  0
   10.2404    7.0134    0.0000 O   0  0  0  0  0  0  0  0  0  0  0  0
    8.1444    7.8951    0.0000 N   0  0  0  0  0  0  0  0  0  0  0  0
    7.1097    8.9811    0.0000 C   0  0  0  0  0  0  0  0  0  0  0  0
    7.2393   10.4755    0.0000 C   0  0  0  0  0  0  0  0  0  0  0  0
    8.5983   11.1104    0.0000 C   0  0  0  0  0  0  0  0  0  0  0  0
    8.7279   12.6048    0.0000 C   0  0  0  0  0  0  0  0  0  0  0  0
   10.0869   13.2398    0.0000 O   0  0  0  0  0  0  0  0  0  0  0  0
    7.4985   13.4643    0.0000 O   0  0  0  0  0  0  0  0  0  0  0  0
    5.8009    9.7139    0.0000 C   0  0  0  0  0  0  0  0  0  0  0  0
    6.3304   11.1173    0.0000 O   0  0  0  0  0  0  0  0  0  0  0  0
    4.3342   10.0283    0.0000 N   0  0  0  0  0  0  0  0  0  0  0  0
    2.8400    9.8965    0.0000 C   0  0  0  0  0  0  0  0  0  0  0  0
    1.7524   10.9295    0.0000 C   0  0  0  0  0  0  0  0  0  0  0  0
    0.3771   11.5283    0.0000 O   0  0  0  0  0  0  0  0  0  0  0  0
    2.1033   12.3879    0.0000 C   0  0  0  0  0  0  0  0  0  0  0  0
    1.4510    9.3300    0.0000 C   0  0  0  0  0  0  0  0  0  0  0  0
    0.6839   10.6191    0.0000 O   0  0  0  0  0  0  0  0  0  0  0  0
    0.2908    8.3794    0.0000 N   0  0  0  0  0  0  0  0  0  0  0  0
   -0.5378    7.1290    0.0000 C   0  0  0  0  0  0  0  0  0  0  0  0
   -2.0235    6.9228    0.0000 C   0  0  0  0  0  0  0  0  0  0  0  0
   -2.9450    8.1064    0.0000 C   0  0  0  0  0  0  0  0  0  0  0  0
   -2.3806    9.4962    0.0000 C   0  0  0  0  0  0  0  0  0  0  0  0
   -3.3021   10.6799    0.0000 C   0  0  0  0  0  0  0  0  0  0  0  0
   -4.7878   10.4737    0.0000 C   0  0  0  0  0  0  0  0  0  0  0  0
   -5.3522    9.0839    0.0000 C   0  0  0  0  0  0  0  0  0  0  0  0
   -4.4307    7.9003    0.0000 C   0  0  0  0  0  0  0  0  0  0  0  0
   -0.9609    5.6899    0.0000 C   0  0  0  0  0  0  0  0  0  0  0  0
   -2.2752    6.4130    0.0000 O   0  0  0  0  0  0  0  0  0  0  0  0
   -0.9411    4.1900    0.0000 N   0  0  0  0  0  0  0  0  0  0  0  0
   -0.4801    2.7626    0.0000 C   0  0  0  0  0  0  0  0  0  0  0  0
    0.3812    1.5346    0.0000 C   0  0  0  0  0  0  0  0  0  0  0  0
    1.5662    0.6149    0.0000 C   0  0  0  0  0  0  0  0  0  0  0  0
    2.9696    0.0854    0.0000 C   0  0  0  0  0  0  0  0  0  0  0  0
    4.4668   -0.0069    0.0000 C   0  0  0  0  0  0  0  0  0  0  0  0
    0.0579    1.3624    0.0000 C   0  0  0  0  0  0  0  0  0  0  0  0
    0.3211   -0.1143    0.0000 C   0  0  0  0  0  0  0  0  0  0  0  0
    0.3002   -1.6141    0.0000 C   0  0  0  0  0  0  0  0  0  0  0  0
   -0.0043   -3.0829    0.0000 C   0  0  0  0  0  0  0  0  0  0  0  0
   -1.2733    4.0357    0.0000 C   0  0  0  0  0  0  0  0  0  0  0  0
   -0.0814    4.9464    0.0000 O   0  0  0  0  0  0  0  0  0  0  0  0
   -2.2931    5.1357    0.0000 N   0  0  0  0  0  0  0  0  0  0  0  0
   -3.5027    6.0228    0.0000 C   0  0  0  0  0  0  0  0  0  0  0  0
   -3.5293    7.5226    0.0000 C   0  0  0  0  0  0  0  0  0  0  0  0
   -4.8415    8.2494    0.0000 C   0  0  0  0  0  0  0  0  0  0  0  0
   -5.2302    9.6981    0.0000 O   0  0  0  0  0  0  0  0  0  0  0  0
   -6.2758    7.8105    0.0000 O   0  0  0  0  0  0  0  0  0  0  0  0
   -4.8583    6.6649    0.0000 C   0  0  0  0  0  0  0  0  0  0  0  0
   -5.0700    8.1499    0.0000 O   0  0  0  0  0  0  0  0  0  0  0  0
   -6.3109    7.0389    0.0000 N   0  0  0  0  0  0  0  0  0  0  0  0
   -7.8081    7.1312    0.0000 C   0  0  0  0  0  0  0  0  0  0  0  0
   -8.6413    8.3785    0.0000 C   0  0  0  0  0  0  0  0  0  0  0  0
   -7.9778    9.7238    0.0000 C   0  0  0  0  0  0  0  0  0  0  0  0
   -8.8110   10.9711    0.0000 C   0  0  0  0  0  0  0  0  0  0  0  0
   -6.8941   10.7609    0.0000 C   0  0  0  0  0  0  0  0  0  0  0  0
   -9.2957    6.9386    0.0000 C   0  0  0  0  0  0  0  0  0  0  0  0
   -9.8047    8.3495    0.0000 O   0  0  0  0  0  0  0  0  0  0  0  0
  -10.7199    6.4678    0.0000 N   0  0  0  0  0  0  0  0  0  0  0  0
  -12.0293    5.7361    0.0000 C   0  0  0  0  0  0  0  0  0  0  0  0
  -13.4046    6.3349    0.0000 C   0  0  0  0  0  0  0  0  0  0  0  0
  -13.5737    7.8253    0.0000 C   0  0  0  0  0  0  0  0  0  0  0  0
  -12.4672    8.8381    0.0000 C   0  0  0  0  0  0  0  0  0  0  0  0
  -13.0886   10.2034    0.0000 N   0  0  0  0  0  0  0  0  0  0  0  0
  -14.5790   10.0343    0.0000 C   0  0  0  0  0  0  0  0  0  0  0  0
  -15.7020   11.0288    0.0000 C   0  0  0  0  0  0  0  0  0  0  0  0
  -17.1247   10.5536    0.0000 C   0  0  0  0  0  0  0  0  0  0  0  0
  -17.4245    9.0838    0.0000 C   0  0  0  0  0  0  0  0  0  0  0  0
  -16.3015    8.0894    0.0000 C   0  0  0  0  0  0  0  0  0  0  0  0
  -14.8788    8.5646    0.0000 C   0  0  0  0  0  0  0  0  0  0  0  0
  -13.1766    4.7697    0.0000 C   0  0  0  0  0  0  0  0  0  0  0  0
  -14.3676    5.6815    0.0000 O   0  0  0  0  0  0  0  0  0  0  0  0
  -14.1202    3.6037    0.0000 N   0  0  0  0  0  0  0  0  0  0  0  0
  -14.8261    2.2802    0.0000 C   0  0  0  0  0  0  0  0  0  0  0  0
  -16.3068    2.0404    0.0000 C   0  0  0  0  0  0  0  0  0  0  0  0
  -17.2548    3.2029    0.0000 C   0  0  0  0  0  0  0  0  0  0  0  0
  -18.7355    2.9631    0.0000 C   0  0  0  0  0  0  0  0  0  0  0  0
  -19.6836    4.1255    0.0000 C   0  0  0  0  0  0  0  0  0  0  0  0
  -21.1643    3.8857    0.0000 N   0  0  0  0  0  0  0  0  0  0  0  0
  -15.2688    0.8470    0.0000 C   0  0  0  0  0  0  0  0  0  0  0  0
  -16.7637    0.9702    0.0000 O   0  0  0  0  0  0  0  0  0  0  0  0
  -15.4322   -0.6440    0.0000 N   0  0  0  0  0  0  0  0  0  0  0  0
  -15.3106   -2.1391    0.0000 C   0  0  0  0  0  0  0  0  0  0  0  0
  -16.4266   -3.1414    0.0000 C   0  0  0  0  0  0  0  0  0  0  0  0
  -17.8526   -2.6760    0.0000 C   0  0  0  0  0  0  0  0  0  0  0  0
  -18.9686   -3.6782    0.0000 C   0  0  0  0  0  0  0  0  0  0  0  0
  -19.0334   -1.7510    0.0000 C   0  0  0  0  0  0  0  0  0  0  0  0
  -14.9081   -3.5841    0.0000 C   0  0  0  0  0  0  0  0  0  0  0  0
  -16.2323   -4.2887    0.0000 O   0  0  0  0  0  0  0  0  0  0  0  0
  -14.2395   -4.9268    0.0000 N   0  0  0  0  0  0  0  0  0  0  0  0
  -13.3288   -6.1188    0.0000 C   0  0  0  0  0  0  0  0  0  0  0  0
  -13.7258   -7.5653    0.0000 C   0  0  0  0  0  0  0  0  0  0  0  0
  -15.1770   -7.9447    0.0000 C   0  0  0  0  0  0  0  0  0  0  0  0
  -15.5740   -9.3913    0.0000 C   0  0  0  0  0  0  0  0  0  0  0  0
  -16.6705   -7.8050    0.0000 C   0  0  0  0  0  0  0  0  0  0  0  0
  -12.2091   -7.1168    0.0000 C   0  0  0  0  0  0  0  0  0  0  0  0
  -12.9421   -8.4255    0.0000 O   0  0  0  0  0  0  0  0  0  0  0  0
  -10.9206   -7.8849    0.0000 N   0  0  0  0  0  0  0  0  0  0  0  0
   -9.5101   -8.3953    0.0000 C   0  0  0  0  0  0  0  0  0  0  0  0
   -8.0285   -8.6295    0.0000 C   0  0  0  0  0  0  0  0  0  0  0  0
   -6.5294   -8.5791    0.0000 C   0  0  0  0  0  0  0  0  0  0  0  0
   -5.0669   -8.2459    0.0000 C   0  0  0  0  0  0  0  0  0  0  0  0
   -3.6938   -7.6419    0.0000 C   0  0  0  0  0  0  0  0  0  0  0  0
   -2.4599   -6.7890    0.0000 C   0  0  0  0  0  0  0  0  0  0  0  0
   -1.4097   -5.7180    0.0000 C   0  0  0  0  0  0  0  0  0  0  0  0
   -0.5812   -4.4675    0.0000 C   0  0  0  0  0  0  0  0  0  0  0  0
  -10.5938   -9.4325    0.0000 C   0  0  0  0  0  0  0  0  0  0  0  0
   -9.0621   -9.8268    0.0000 C   0  0  0  0  0  0  0  0  0  0  0  0
   -7.7211  -10.4990    0.0000 O   0  0  0  0  0  0  0  0  0  0  0  0
  -10.0777  -10.9306    0.0000 N   0  0  0  0  0  0  0  0  0  0  0  0
   -9.6297  -12.3621    0.0000 C   0  0  0  0  0  0  0  0  0  0  0  0
   -8.7190  -13.5541    0.0000 C   0  0  0  0  0  0  0  0  0  0  0  0
   -9.2959  -14.9387    0.0000 C   0  0  0  0  0  0  0  0  0  0  0  0
   -8.3853  -16.1306    0.0000 C   0  0  0  0  0  0  0  0  0  0  0  0
   -8.7891  -17.5752    0.0000 O   0  0  0  0  0  0  0  0  0  0  0  0
   -6.8977  -15.9379    0.0000 O   0  0  0  0  0  0  0  0  0  0  0  0
  -10.6454  -13.4659    0.0000 C   0  0  0  0  0  0  0  0  0  0  0  0
  -12.1091  -13.1382    0.0000 O   0  0  0  0  0  0  0  0  0  0  0  0
  -10.1973  -14.8974    0.0000 N   0  0  0  0  0  0  0  0  0  0  0  0
  -11.2130  -16.0012    0.0000 C   0  0  0  0  0  0  0  0  0  0  0  0
  -12.5449  -16.6911    0.0000 C   0  0  0  0  0  0  0  0  0  0  0  0
  -13.8083  -15.8825    0.0000 C   0  0  0  0  0  0  0  0  0  0  0  0
  -15.1403  -16.5723    0.0000 N   0  0  0  0  0  0  0  0  0  0  0  0
  -13.7398  -14.3841    0.0000 O   0  0  0  0  0  0  0  0  0  0  0  0
  -10.7649  -17.4327    0.0000 C   0  0  0  0  0  0  0  0  0  0  0  0
  -11.6385  -18.6521    0.0000 O   0  0  0  0  0  0  0  0  0  0  0  0
   -9.3520  -17.9364    0.0000 O   0  0  0  0  0  0  0  0  0  0  0  0
   24.0350   -1.3552    0.0000 H   0  0  0  0  0  0  0  0  0  0  0  0
   22.5156   -5.5830    0.0000 H   0  0  0  0  0  0  0  0  0  0  0  0
   24.3585   -7.9503    0.0000 H   0  0  0  0  0  0  0  0  0  0  0  0
   26.2628   -2.2958    0.0000 H   0  0  0  0  0  0  0  0  0  0  0  0
   33.3550   -3.3031    0.0000 H   0  0  0  0  0  0  0  0  0  0  0  0
   32.4437   -8.4187    0.0000 H   0  0  0  0  0  0  0  0  0  0  0  0
   29.4902   -7.8926    0.0000 H   0  0  0  0  0  0  0  0  0  0  0  0
   34.8867   -7.5344    0.0000 H   0  0  0  0  0  0  0  0  0  0  0  0
   25.5156   -4.5457    0.0000 H   0  0  0  0  0  0  0  0  0  0  0  0
   24.5375   -1.5467    0.0000 H   0  0  0  0  0  0  0  0  0  0  0  0
   29.3803    0.0439    0.0000 H   0  0  0  0  0  0  0  0  0  0  0  0
   27.3930    1.7174    0.0000 H   0  0  0  0  0  0  0  0  0  0  0  0
   21.8014   -0.4362    0.0000 H   0  0  0  0  0  0  0  0  0  0  0  0
   20.2124   -3.4595    0.0000 H   0  0  0  0  0  0  0  0  0  0  0  0
   18.6349   -3.0339    0.0000 H   0  0  0  0  0  0  0  0  0  0  0  0
   20.0601    0.0097    0.0000 H   0  0  0  0  0  0  0  0  0  0  0  0
   18.5463    0.6244    0.0000 H   0  0  0  0  0  0  0  0  0  0  0  0
   16.9870    1.5187    0.0000 H   0  0  0  0  0  0  0  0  0  0  0  0
   14.9919    1.4218    0.0000 H   0  0  0  0  0  0  0  0  0  0  0  0
   15.1607   -2.9857    0.0000 H   0  0  0  0  0  0  0  0  0  0  0  0
   13.9122   -1.7108    0.0000 H   0  0  0  0  0  0  0  0  0  0  0  0
   17.2807   -0.3779    0.0000 H   0  0  0  0  0  0  0  0  0  0  0  0
   18.6727   -3.9064    0.0000 H   0  0  0  0  0  0  0  0  0  0  0  0
   17.2707   -4.7454    0.0000 H   0  0  0  0  0  0  0  0  0  0  0  0
   15.8761   -3.6322    0.0000 H   0  0  0  0  0  0  0  0  0  0  0  0
   19.2719   -2.7965    0.0000 H   0  0  0  0  0  0  0  0  0  0  0  0
   19.7517   -1.0778    0.0000 H   0  0  0  0  0  0  0  0  0  0  0  0
   17.7188   -0.2523    0.0000 H   0  0  0  0  0  0  0  0  0  0  0  0
   14.0149    2.7776    0.0000 H   0  0  0  0  0  0  0  0  0  0  0  0
   12.1069    3.3688    0.0000 H   0  0  0  0  0  0  0  0  0  0  0  0
   10.9233   -0.9098    0.0000 H   0  0  0  0  0  0  0  0  0  0  0  0
   10.0209    0.7945    0.0000 H   0  0  0  0  0  0  0  0  0  0  0  0
   12.7033   -1.8161    0.0000 H   0  0  0  0  0  0  0  0  0  0  0  0
   11.7282    4.8102    0.0000 H   0  0  0  0  0  0  0  0  0  0  0  0
   10.3508    3.6507    0.0000 H   0  0  0  0  0  0  0  0  0  0  0  0
    9.6857    2.3390    0.0000 H   0  0  0  0  0  0  0  0  0  0  0  0
    9.5353    1.5064    0.0000 H   0  0  0  0  0  0  0  0  0  0  0  0
    8.9832    0.9353    0.0000 H   0  0  0  0  0  0  0  0  0  0  0  0
    8.5752    0.4837    0.0000 H   0  0  0  0  0  0  0  0  0  0  0  0
    7.3827   -0.3772    0.0000 H   0  0  0  0  0  0  0  0  0  0  0  0
    6.4911   -1.0428    0.0000 H   0  0  0  0  0  0  0  0  0  0  0  0
   11.7203    5.4048    0.0000 H   0  0  0  0  0  0  0  0  0  0  0  0
   11.1952    7.1102    0.0000 H   0  0  0  0  0  0  0  0  0  0  0  0
    9.5642    7.2067    0.0000 H   0  0  0  0  0  0  0  0  0  0  0  0
    9.3725    8.7564    0.0000 H   0  0  0  0  0  0  0  0  0  0  0  0
    8.5751    9.3014    0.0000 H   0  0  0  0  0  0  0  0  0  0  0  0
    6.8500   11.9241    0.0000 H   0  0  0  0  0  0  0  0  0  0  0  0
    5.7576   10.7091    0.0000 H   0  0  0  0  0  0  0  0  0  0  0  0
   10.0925   11.2423    0.0000 H   0  0  0  0  0  0  0  0  0  0  0  0
    9.1613    9.7201    0.0000 H   0  0  0  0  0  0  0  0  0  0  0  0
    4.4265   11.5255    0.0000 H   0  0  0  0  0  0  0  0  0  0  0  0
    3.5033   11.2418    0.0000 H   0  0  0  0  0  0  0  0  0  0  0  0
    0.6460    9.9168    0.0000 H   0  0  0  0  0  0  0  0  0  0  0  0
    0.0277   12.9871    0.0000 H   0  0  0  0  0  0  0  0  0  0  0  0
    1.1498   13.5458    0.0000 H   0  0  0  0  0  0  0  0  0  0  0  0
    2.9319   13.6383    0.0000 H   0  0  0  0  0  0  0  0  0  0  0  0
    3.5414   11.9612    0.0000 H   0  0  0  0  0  0  0  0  0  0  0  0
   -0.6913    9.5132    0.0000 H   0  0  0  0  0  0  0  0  0  0  0  0
   -1.3368    8.3985    0.0000 H   0  0  0  0  0  0  0  0  0  0  0  0
   -3.4796    6.5625    0.0000 H   0  0  0  0  0  0  0  0  0  0  0  0
   -2.1048    5.4250    0.0000 H   0  0  0  0  0  0  0  0  0  0  0  0
   -0.9311    9.8820    0.0000 H   0  0  0  0  0  0  0  0  0  0  0  0
   -2.7377   12.0696    0.0000 H   0  0  0  0  0  0  0  0  0  0  0  0
   -5.5581   11.7608    0.0000 H   0  0  0  0  0  0  0  0  0  0  0  0
   -6.8520    9.0604    0.0000 H   0  0  0  0  0  0  0  0  0  0  0  0
   -5.3146    6.6883    0.0000 H   0  0  0  0  0  0  0  0  0  0  0  0
   -2.4213    3.9469    0.0000 H   0  0  0  0  0  0  0  0  0  0  0  0
    0.2107    0.0443    0.0000 H   0  0  0  0  0  0  0  0  0  0  0  0
   -1.0924    1.2546    0.0000 H   0  0  0  0  0  0  0  0  0  0  0  0
    1.8426   -0.8594    0.0000 H   0  0  0  0  0  0  0  0  0  0  0  0
    0.5802   -0.5155    0.0000 H   0  0  0  0  0  0  0  0  0  0  0  0
    3.5013   -1.3173    0.0000 H   0  0  0  0  0  0  0  0  0  0  0  0
    2.3607   -1.2854    0.0000 H   0  0  0  0  0  0  0  0  0  0  0  0
    4.5987   -1.5011    0.0000 H   0  0  0  0  0  0  0  0  0  0  0  0
    1.0736    2.4662    0.0000 H   0  0  0  0  0  0  0  0  0  0  0  0
    1.4360    0.7701    0.0000 H   0  0  0  0  0  0  0  0  0  0  0  0
    1.7668    0.2857    0.0000 H   0  0  0  0  0  0  0  0  0  0  0  0
    1.5623   -0.9567    0.0000 H   0  0  0  0  0  0  0  0  0  0  0  0
    1.7954   -1.4950    0.0000 H   0  0  0  0  0  0  0  0  0  0  0  0
    1.4810   -2.5392    0.0000 H   0  0  0  0  0  0  0  0  0  0  0  0
    1.4289   -3.5256    0.0000 H   0  0  0  0  0  0  0  0  0  0  0  0
   -1.4390    6.3688    0.0000 H   0  0  0  0  0  0  0  0  0  0  0  0
   -2.3773    7.0144    0.0000 H   0  0  0  0  0  0  0  0  0  0  0  0
   -3.0414    8.9410    0.0000 H   0  0  0  0  0  0  0  0  0  0  0  0
   -2.0873    7.1095    0.0000 H   0  0  0  0  0  0  0  0  0  0  0  0
   -6.0767    8.5205    0.0000 H   0  0  0  0  0  0  0  0  0  0  0  0
   -7.0606    8.4317    0.0000 H   0  0  0  0  0  0  0  0  0  0  0  0
   -9.8509    9.2656    0.0000 H   0  0  0  0  0  0  0  0  0  0  0  0
   -9.9437    7.6344    0.0000 H   0  0  0  0  0  0  0  0  0  0  0  0
   -6.6691    8.9907    0.0000 H   0  0  0  0  0  0  0  0  0  0  0  0
   -8.3164   12.3872    0.0000 H   0  0  0  0  0  0  0  0  0  0  0  0
  -10.0206   11.8581    0.0000 H   0  0  0  0  0  0  0  0  0  0  0  0
  -10.0130   10.0737    0.0000 H   0  0  0  0  0  0  0  0  0  0  0  0
   -7.0702   12.2506    0.0000 H   0  0  0  0  0  0  0  0  0  0  0  0
   -5.6049   11.5278    0.0000 H   0  0  0  0  0  0  0  0  0  0  0  0
   -6.0609    9.5136    0.0000 H   0  0  0  0  0  0  0  0  0  0  0  0
  -11.1520    7.9042    0.0000 H   0  0  0  0  0  0  0  0  0  0  0  0
  -12.1035    7.2342    0.0000 H   0  0  0  0  0  0  0  0  0  0  0  0
  -14.8793    6.6090    0.0000 H   0  0  0  0  0  0  0  0  0  0  0  0
  -14.0980    5.0047    0.0000 H   0  0  0  0  0  0  0  0  0  0  0  0
  -10.9719    8.7198    0.0000 H   0  0  0  0  0  0  0  0  0  0  0  0
  -12.3493   11.5086    0.0000 H   0  0  0  0  0  0  0  0  0  0  0  0
  -15.4022   12.4986    0.0000 H   0  0  0  0  0  0  0  0  0  0  0  0
  -18.2476   11.5481    0.0000 H   0  0  0  0  0  0  0  0  0  0  0  0
  -18.8472    8.6086    0.0000 H   0  0  0  0  0  0  0  0  0  0  0  0
  -16.6013    6.6196    0.0000 H   0  0  0  0  0  0  0  0  0  0  0  0
  -15.2603    4.5785    0.0000 H   0  0  0  0  0  0  0  0  0  0  0  0
  -15.5432    3.5977    0.0000 H   0  0  0  0  0  0  0  0  0  0  0  0
  -17.6162    1.3087    0.0000 H   0  0  0  0  0  0  0  0  0  0  0  0
  -16.1710    0.5466    0.0000 H   0  0  0  0  0  0  0  0  0  0  0  0
  -17.5717    4.6690    0.0000 H   0  0  0  0  0  0  0  0  0  0  0  0
  -16.1614    4.2297    0.0000 H   0  0  0  0  0  0  0  0  0  0  0  0
  -19.9460    2.0772    0.0000 H   0  0  0  0  0  0  0  0  0  0  0  0
  -18.4186    1.4969    0.0000 H   0  0  0  0  0  0  0  0  0  0  0  0
  -20.1768    5.5421    0.0000 H   0  0  0  0  0  0  0  0  0  0  0  0
  -18.4731    5.0114    0.0000 H   0  0  0  0  0  0  0  0  0  0  0  0
  -22.1123    5.0482    0.0000 H   0  0  0  0  0  0  0  0  0  0  0  0
  -22.4737    3.1540    0.0000 H   0  0  0  0  0  0  0  0  0  0  0  0
  -20.8474    2.4196    0.0000 H   0  0  0  0  0  0  0  0  0  0  0  0
  -16.9184   -0.4404    0.0000 H   0  0  0  0  0  0  0  0  0  0  0  0
  -16.6261   -1.4185    0.0000 H   0  0  0  0  0  0  0  0  0  0  0  0
  -17.1325   -4.4649    0.0000 H   0  0  0  0  0  0  0  0  0  0  0  0
  -15.5047   -4.3246    0.0000 H   0  0  0  0  0  0  0  0  0  0  0  0
  -17.4879   -1.2210    0.0000 H   0  0  0  0  0  0  0  0  0  0  0  0
  -20.4406   -3.3902    0.0000 H   0  0  0  0  0  0  0  0  0  0  0  0
  -19.6745   -5.0018    0.0000 H   0  0  0  0  0  0  0  0  0  0  0  0
  -17.9093   -4.7403    0.0000 H   0  0  0  0  0  0  0  0  0  0  0  0
  -20.4828   -2.1373    0.0000 H   0  0  0  0  0  0  0  0  0  0  0  0
  -19.8266   -0.4779    0.0000 H   0  0  0  0  0  0  0  0  0  0  0  0
  -17.9174   -0.7487    0.0000 H   0  0  0  0  0  0  0  0  0  0  0  0
  -15.5998   -5.5590    0.0000 H   0  0  0  0  0  0  0  0  0  0  0  0
  -14.8252   -6.2238    0.0000 H   0  0  0  0  0  0  0  0  0  0  0  0
  -13.6041   -9.0603    0.0000 H   0  0  0  0  0  0  0  0  0  0  0  0
  -12.3106   -8.0623    0.0000 H   0  0  0  0  0  0  0  0  0  0  0  0
  -15.6569   -6.5236    0.0000 H   0  0  0  0  0  0  0  0  0  0  0  0
  -16.9682   -9.9448    0.0000 H   0  0  0  0  0  0  0  0  0  0  0  0
  -15.4523  -10.8863    0.0000 H   0  0  0  0  0  0  0  0  0  0  0  0
  -14.1087   -9.7120    0.0000 H   0  0  0  0  0  0  0  0  0  0  0  0
  -17.6810   -8.9136    0.0000 H   0  0  0  0  0  0  0  0  0  0  0  0
  -18.0261   -7.1628    0.0000 H   0  0  0  0  0  0  0  0  0  0  0  0
  -16.2735   -6.3585    0.0000 H   0  0  0  0  0  0  0  0  0  0  0  0
  -11.7232   -9.1521    0.0000 H   0  0  0  0  0  0  0  0  0  0  0  0
   -7.3176   -9.9504    0.0000 H   0  0  0  0  0  0  0  0  0  0  0  0
   -8.5745  -10.0266    0.0000 H   0  0  0  0  0  0  0  0  0  0  0  0
   -5.7301   -9.8484    0.0000 H   0  0  0  0  0  0  0  0  0  0  0  0
   -6.8010  -10.0543    0.0000 H   0  0  0  0  0  0  0  0  0  0  0  0
   -4.0418   -9.3410    0.0000 H   0  0  0  0  0  0  0  0  0  0  0  0
   -5.2374   -9.7362    0.0000 H   0  0  0  0  0  0  0  0  0  0  0  0
   -2.4801   -8.5232    0.0000 H   0  0  0  0  0  0  0  0  0  0  0  0
   -3.5792   -9.1375    0.0000 H   0  0  0  0  0  0  0  0  0  0  0  0
   -1.1013   -7.4247    0.0000 H   0  0  0  0  0  0  0  0  0  0  0  0
   -2.0643   -8.2359    0.0000 H   0  0  0  0  0  0  0  0  0  0  0  0
    0.0786   -5.9051    0.0000 H   0  0  0  0  0  0  0  0  0  0  0  0
   -0.7475   -7.0638    0.0000 H   0  0  0  0  0  0  0  0  0  0  0  0
    0.7423   -5.1735    0.0000 H   0  0  0  0  0  0  0  0  0  0  0  0
  -10.6006  -10.9324    0.0000 H   0  0  0  0  0  0  0  0  0  0  0  0
  -11.9668  -10.0364    0.0000 H   0  0  0  0  0  0  0  0  0  0  0  0
  -11.7041   -8.4238    0.0000 H   0  0  0  0  0  0  0  0  0  0  0  0
  -11.5705  -10.7838    0.0000 H   0  0  0  0  0  0  0  0  0  0  0  0
   -8.2977  -11.6723    0.0000 H   0  0  0  0  0  0  0  0  0  0  0  0
   -7.4556  -14.3626    0.0000 H   0  0  0  0  0  0  0  0  0  0  0  0
   -7.7033  -12.4502    0.0000 H   0  0  0  0  0  0  0  0  0  0  0  0
  -10.3116  -16.0425    0.0000 H   0  0  0  0  0  0  0  0  0  0  0  0
  -10.7911  -14.8180    0.0000 H   0  0  0  0  0  0  0  0  0  0  0  0
   -8.8563  -15.5696    0.0000 H   0  0  0  0  0  0  0  0  0  0  0  0
  -12.1236  -14.8093    0.0000 H   0  0  0  0  0  0  0  0  0  0  0  0
  -13.5606  -17.7949    0.0000 H   0  0  0  0  0  0  0  0  0  0  0  0
  -11.7864  -17.9851    0.0000 H   0  0  0  0  0  0  0  0  0  0  0  0
  -16.4037  -15.7638    0.0000 H   0  0  0  0  0  0  0  0  0  0  0  0
  -15.2088  -18.0708    0.0000 H   0  0  0  0  0  0  0  0  0  0  0  0
  1  2  1  0
  2  3  1  0
  3  4  2  0
  4  5  1  0
  5  6  2  0
  6  7  1  0
  7  8  2  0
  7  9  1  0
  9 10  1  0
 10 11  1  0
 11 12  2  0
  9 13  1  0
 13 14  1  0
 14 15  2  0
 15 16  1  0
 16 17  2  0
 17 18  1  0
 16 19  1  0
 14 20  1  0
 20 21  1  0
 21 22  2  0
 22 23  1  0
 23 24  2  0
 24 25  1  0
 25 26  2  0
 25 27  1  0
  1 28  2  0
  1 29  1  0
 29 30  1  0
 30 31  1  0
 31 32  1  0
 32 33  2  0
 32 34  1  0
 34 35  1  0
 35 36  1  0
 36 37  1  0
 37 38  1  0
 37 39  1  0
 35 40  1  0
 40 41  2  0
 40 42  1  0
 42 43  1  0
 43 44  1  0
 44 45  1  0
 43 46  1  0
 46 47  2  0
 46 48  1  0
 49 48  1  1
 49 50  1  0
 50 51  1  0
 51 52  1  0
 52 53  1  0
 49 54  1  0
 49 55  1  0
 55 56  2  0
 55 57  1  0
 57 58  1  0
 58 59  1  0
 59 60  1  0
 60 61  1  0
 61 62  2  0
 61 63  1  0
 58 64  1  0
 64 65  2  0
 64 66  1  0
 66 67  1  0
 67 68  1  0
 68 69  1  0
 68 70  1  0
 67 71  1  0
 71 72  2  0
 71 73  1  0
 73 74  1  0
 74 75  1  0
 75 76  1  0
 76 77  2  0
 77 78  1  0
 78 79  2  0
 79 80  1  0
 80 81  2  0
 74 82  1  0
 82 83  2  0
 82 84  1  0
 84 85  1  0
 85 86  1  0
 86 87  1  0
 87 88  1  0
 88 89  1  0
 85 90  1  0
 90 91  1  0
 91 92  1  0
 92 93  1  0
 85 94  1  0
 94 95  2  0
 94 96  1  0
 96 97  1  0
 97 98  1  0
 98 99  1  0
 99100  2  0
 99101  1  0
 97102  1  0
102103  2  0
102104  1  0
104105  1  0
105106  1  0
106107  1  0
107108  1  0
107109  1  0
105110  1  0
110111  2  0
110112  1  0
112113  1  0
113114  1  0
114115  1  0
115116  2  0
116117  1  0
117118  1  0
118119  2  0
119120  1  0
120121  2  0
121122  1  0
122123  2  0
113124  1  0
124125  2  0
124126  1  0
126127  1  0
127128  1  0
128129  1  0
129130  1  0
130131  1  0
131132  1  0
127133  1  0
133134  2  0
133135  1  0
135136  1  0
136137  1  0
137138  1  0
138139  1  0
138140  1  0
136141  1  0
141142  2  0
141143  1  0
143144  1  0
144145  1  0
145146  1  0
146147  1  0
146148  1  0
144149  1  0
149150  2  0
149151  1  0
151152  1  0
152153  1  0
153154  1  0
154155  1  0
155156  1  0
156157  1  0
157158  1  0
158159  1  0
152160  1  0
152161  1  1
161162  2  0
161163  1  0
163164  1  0
164165  1  0
165166  1  0
166167  1  0
167168  2  0
167169  1  0
164170  1  0
170171  2  0
170172  1  0
172173  1  0
173174  1  0
174175  1  0
175176  1  0
175177  2  0
173178  1  0
178179  2  0
178180  1  0
  8  3  1  0
 81 76  1  0
123115  1  0
 11  6  1  0
123118  1  0
 18 13  2  0
 53 89  2  0
 22  9  1  0
 93159  2  0
 26 21  1  0
  2181  1  0
  4182  1  0
  5183  1  0
  8184  1  0
 15185  1  0
 17186  1  0
 18187  1  0
 19188  1  0
 23189  1  0
 24190  1  0
 26191  1  0
 27192  1  0
 29193  1  0
 30194  1  0
 30195  1  0
 31196  1  0
 31197  1  0
 34198  1  0
 35199  1  1
 36200  1  0
 36201  1  0
 37202  1  0
 38203  1  0
 38204  1  0
 38205  1  0
 39206  1  0
 39207  1  0
 39208  1  0
 42209  1  0
 43210  1  1
 44211  1  0
 44212  1  0
 45213  1  0
 48214  1  0
 50215  1  0
 50216  1  0
 51217  1  0
 51218  1  0
 52219  1  0
 52220  1  0
 53221  1  0
 54222  1  0
 54223  1  0
 54224  1  0
 57225  1  0
 58226  1  6
 59227  1  0
 59228  1  0
 60229  1  0
 60230  1  0
 66231  1  0
 67232  1  6
 68233  1  1
 69234  1  0
 70235  1  0
 70236  1  0
 70237  1  0
 73238  1  0
 74239  1  6
 75240  1  0
 75241  1  0
 77242  1  0
 78243  1  0
 79244  1  0
 80245  1  0
 81246  1  0
 84247  1  0
 86248  1  0
 86249  1  0
 87250  1  0
 87251  1  0
 88252  1  0
 88253  1  0
 89254  1  0
 90255  1  0
 90256  1  0
 91257  1  0
 91258  1  0
 92259  1  0
 92260  1  0
 93261  1  0
 96262  1  0
 97263  1  6
 98264  1  0
 98265  1  0
104266  1  0
105267  1  6
106268  1  0
106269  1  0
107270  1  0
108271  1  0
108272  1  0
108273  1  0
109274  1  0
109275  1  0
109276  1  0
112277  1  0
113278  1  6
114279  1  0
114280  1  0
116281  1  0
117282  1  0
119283  1  0
120284  1  0
121285  1  0
122286  1  0
126287  1  0
127288  1  6
128289  1  0
128290  1  0
129291  1  0
129292  1  0
130293  1  0
130294  1  0
131295  1  0
131296  1  0
132297  1  0
132298  1  0
132299  1  0
135300  1  0
136301  1  6
137302  1  0
137303  1  0
138304  1  0
139305  1  0
139306  1  0
139307  1  0
140308  1  0
140309  1  0
140310  1  0
143311  1  0
144312  1  6
145313  1  0
145314  1  0
146315  1  0
147316  1  0
147317  1  0
147318  1  0
148319  1  0
148320  1  0
148321  1  0
151322  1  0
153323  1  0
153324  1  0
154325  1  0
154326  1  0
155327  1  0
155328  1  0
156329  1  0
156330  1  0
157331  1  0
157332  1  0
158333  1  0
158334  1  0
159335  1  0
160336  1  0
160337  1  0
160338  1  0
163339  1  0
164340  1  1
165341  1  0
165342  1  0
166343  1  0
166344  1  0
172345  1  0
173346  1  6
174347  1  0
174348  1  0
176349  1  0
176350  1  0
M  CHG  5  63  -1 101  -1 132   1 169  -1 180  -1
M  END
