
     RDKit          2D

340348  0  0  0  0  0  0  0  0999 V2000
   23.4496    1.8460    0.0000 C   0  0  0  0  0  0  0  0  0  0  0  0
   23.7472    3.3161    0.0000 N   0  0  0  0  0  0  0  0  0  0  0  0
   25.1693    3.7935    0.0000 C   0  0  0  0  0  0  0  0  0  0  0  0
   26.2936    2.8006    0.0000 C   0  0  0  0  0  0  0  0  0  0  0  0
   27.7157    3.2779    0.0000 C   0  0  0  0  0  0  0  0  0  0  0  0
   28.0133    4.7481    0.0000 C   0  0  0  0  0  0  0  0  0  0  0  0
   26.8890    5.7409    0.0000 C   0  0  0  0  0  0  0  0  0  0  0  0
   25.4669    5.2636    0.0000 C   0  0  0  0  0  0  0  0  0  0  0  0
   27.4858    7.1171    0.0000 C   0  0  0  0  0  0  0  0  0  0  0  0
   28.9790    6.9747    0.0000 O   0  0  0  0  0  0  0  0  0  0  0  0
   29.3051    5.5106    0.0000 C   0  0  0  0  0  0  0  0  0  0  0  0
   30.6812    4.9138    0.0000 O   0  0  0  0  0  0  0  0  0  0  0  0
   28.2232    8.4233    0.0000 C   0  0  0  0  0  0  0  0  0  0  0  0
   27.4606    9.7150    0.0000 C   0  0  0  0  0  0  0  0  0  0  0  0
   28.1980   11.0213    0.0000 C   0  0  0  0  0  0  0  0  0  0  0  0
   29.6980   11.0358    0.0000 C   0  0  0  0  0  0  0  0  0  0  0  0
   30.4605    9.7441    0.0000 C   0  0  0  0  0  0  0  0  0  0  0  0
   29.7231    8.4378    0.0000 C   0  0  0  0  0  0  0  0  0  0  0  0
   30.4354   12.3420    0.0000 O   0  0  0  0  0  0  0  0  0  0  0  0
   25.9607    9.7005    0.0000 O   0  0  0  0  0  0  0  0  0  0  0  0
   25.2233    8.3943    0.0000 C   0  0  0  0  0  0  0  0  0  0  0  0
   25.9859    7.1026    0.0000 C   0  0  0  0  0  0  0  0  0  0  0  0
   24.8926    6.3991    0.0000 C   0  0  0  0  0  0  0  0  0  0  0  0
   24.0926    6.3914    0.0000 C   0  0  0  0  0  0  0  0  0  0  0  0
   23.6860    7.0803    0.0000 C   0  0  0  0  0  0  0  0  0  0  0  0
   24.0792    7.7770    0.0000 C   0  0  0  0  0  0  0  0  0  0  0  0
   21.4861    7.0590    0.0000 O   0  0  0  0  0  0  0  0  0  0  0  0
   24.5740    0.8531    0.0000 S   0  0  0  0  0  0  0  0  0  0  0  0
   22.0275    1.3687    0.0000 N   0  0  0  0  0  0  0  0  0  0  0  0
   21.7299   -0.1015    0.0000 C   0  0  0  0  0  0  0  0  0  0  0  0
   20.3079   -0.5788    0.0000 C   0  0  0  0  0  0  0  0  0  0  0  0
   20.0102   -2.0490    0.0000 C   0  0  0  0  0  0  0  0  0  0  0  0
   20.7177   -2.4164    0.0000 O   0  0  0  0  0  0  0  0  0  0  0  0
   18.5882   -2.5263    0.0000 N   0  0  0  0  0  0  0  0  0  0  0  0
   18.2905   -3.9964    0.0000 C   0  0  0  0  0  0  0  0  0  0  0  0
   19.7900   -4.0343    0.0000 C   0  0  0  0  0  0  0  0  0  0  0  0
   20.5726   -2.7546    0.0000 C   0  0  0  0  0  0  0  0  0  0  0  0
   22.0721   -2.7924    0.0000 C   0  0  0  0  0  0  0  0  0  0  0  0
   20.8702   -1.2844    0.0000 C   0  0  0  0  0  0  0  0  0  0  0  0
   17.5080   -5.2762    0.0000 C   0  0  0  0  0  0  0  0  0  0  0  0
   18.3802   -6.4965    0.0000 O   0  0  0  0  0  0  0  0  0  0  0  0
   16.0084   -5.2383    0.0000 N   0  0  0  0  0  0  0  0  0  0  0  0
   15.2259   -6.5180    0.0000 C   0  0  0  0  0  0  0  0  0  0  0  0
   16.6221   -7.0664    0.0000 C   0  0  0  0  0  0  0  0  0  0  0  0
   17.9003   -6.2815    0.0000 O   0  0  0  0  0  0  0  0  0  0  0  0
   14.0529   -7.4529    0.0000 C   0  0  0  0  0  0  0  0  0  0  0  0
   14.6283   -8.8381    0.0000 O   0  0  0  0  0  0  0  0  0  0  0  0
   12.6567   -6.9045    0.0000 N   0  0  0  0  0  0  0  0  0  0  0  0
   11.4837   -7.8394    0.0000 C   0  0  0  0  0  0  0  0  0  0  0  0
   12.6081   -8.8322    0.0000 C   0  0  0  0  0  0  0  0  0  0  0  0
   14.0301   -8.3549    0.0000 C   0  0  0  0  0  0  0  0  0  0  0  0
   15.1545   -9.3478    0.0000 C   0  0  0  0  0  0  0  0  0  0  0  0
   16.6241   -9.0474    0.0000 N   0  0  0  0  0  0  0  0  0  0  0  0
   14.8568  -10.8179    0.0000 O   0  0  0  0  0  0  0  0  0  0  0  0
   10.0617   -8.3167    0.0000 C   0  0  0  0  0  0  0  0  0  0  0  0
   10.1286   -9.8152    0.0000 O   0  0  0  0  0  0  0  0  0  0  0  0
    8.9373   -7.3238    0.0000 N   0  0  0  0  0  0  0  0  0  0  0  0
    7.5153   -7.8011    0.0000 C   0  0  0  0  0  0  0  0  0  0  0  0
    8.2323   -9.1186    0.0000 C   0  0  0  0  0  0  0  0  0  0  0  0
    9.7318   -9.1565    0.0000 C   0  0  0  0  0  0  0  0  0  0  0  0
   10.4488  -10.4740    0.0000 C   0  0  0  0  0  0  0  0  0  0  0  0
   11.9325  -10.6944    0.0000 O   0  0  0  0  0  0  0  0  0  0  0  0
    9.6662  -11.7537    0.0000 O   0  0  0  0  0  0  0  0  0  0  0  0
    6.0157   -7.7633    0.0000 C   0  0  0  0  0  0  0  0  0  0  0  0
    5.5661   -9.1943    0.0000 O   0  0  0  0  0  0  0  0  0  0  0  0
    5.2988   -6.4457    0.0000 N   0  0  0  0  0  0  0  0  0  0  0  0
    3.7992   -6.4079    0.0000 C   0  0  0  0  0  0  0  0  0  0  0  0
    4.0224   -7.8912    0.0000 C   0  0  0  0  0  0  0  0  0  0  0  0
    3.7247   -9.3613    0.0000 O   0  0  0  0  0  0  0  0  0  0  0  0
    5.3412   -8.6057    0.0000 C   0  0  0  0  0  0  0  0  0  0  0  0
    2.4031   -5.8594    0.0000 C   0  0  0  0  0  0  0  0  0  0  0  0
    1.4911   -7.0504    0.0000 O   0  0  0  0  0  0  0  0  0  0  0  0
    2.1800   -4.3761    0.0000 N   0  0  0  0  0  0  0  0  0  0  0  0
    0.7838   -3.8277    0.0000 C   0  0  0  0  0  0  0  0  0  0  0  0
    0.4862   -5.2979    0.0000 C   0  0  0  0  0  0  0  0  0  0  0  0
    1.6105   -6.2907    0.0000 C   0  0  0  0  0  0  0  0  0  0  0  0
    1.3129   -7.7609    0.0000 C   0  0  0  0  0  0  0  0  0  0  0  0
    2.4373   -8.7538    0.0000 C   0  0  0  0  0  0  0  0  0  0  0  0
    3.8593   -8.2765    0.0000 C   0  0  0  0  0  0  0  0  0  0  0  0
    4.1570   -6.8063    0.0000 C   0  0  0  0  0  0  0  0  0  0  0  0
    3.0326   -5.8134    0.0000 C   0  0  0  0  0  0  0  0  0  0  0  0
   -0.3406   -2.8348    0.0000 C   0  0  0  0  0  0  0  0  0  0  0  0
   -1.6048   -3.6420    0.0000 O   0  0  0  0  0  0  0  0  0  0  0  0
   -0.0429   -1.3647    0.0000 N   0  0  0  0  0  0  0  0  0  0  0  0
   -1.1673   -0.3718    0.0000 C   0  0  0  0  0  0  0  0  0  0  0  0
   -1.5576   -1.8201    0.0000 C   0  0  0  0  0  0  0  0  0  0  0  0
   -2.2149   -3.1684    0.0000 C   0  0  0  0  0  0  0  0  0  0  0  0
   -3.1156   -4.3679    0.0000 C   0  0  0  0  0  0  0  0  0  0  0  0
   -4.2269   -5.3753    0.0000 C   0  0  0  0  0  0  0  0  0  0  0  0
   -5.5089   -6.1542    0.0000 C   0  0  0  0  0  0  0  0  0  0  0  0
   -6.9150   -6.6764    0.0000 C   0  0  0  0  0  0  0  0  0  0  0  0
   -8.3946   -6.9230    0.0000 C   0  0  0  0  0  0  0  0  0  0  0  0
    0.2216    0.1947    0.0000 C   0  0  0  0  0  0  0  0  0  0  0  0
   -1.0581    1.1242    0.0000 C   0  0  0  0  0  0  0  0  0  0  0  0
    0.4262    1.3403    0.0000 O   0  0  0  0  0  0  0  0  0  0  0  0
   -1.2341    2.6139    0.0000 N   0  0  0  0  0  0  0  0  0  0  0  0
   -1.6887    4.0433    0.0000 C   0  0  0  0  0  0  0  0  0  0  0  0
   -0.8266    5.2708    0.0000 C   0  0  0  0  0  0  0  0  0  0  0  0
    0.6675    5.1379    0.0000 C   0  0  0  0  0  0  0  0  0  0  0  0
    1.5296    6.3654    0.0000 O   0  0  0  0  0  0  0  0  0  0  0  0
    1.2995    3.7776    0.0000 O   0  0  0  0  0  0  0  0  0  0  0  0
   -2.4057    5.3608    0.0000 C   0  0  0  0  0  0  0  0  0  0  0  0
   -1.2738    6.3451    0.0000 O   0  0  0  0  0  0  0  0  0  0  0  0
   -3.3591    6.5189    0.0000 N   0  0  0  0  0  0  0  0  0  0  0  0
   -4.5144    7.4756    0.0000 C   0  0  0  0  0  0  0  0  0  0  0  0
   -4.4528    8.9743    0.0000 C   0  0  0  0  0  0  0  0  0  0  0  0
   -3.1240    9.6703    0.0000 C   0  0  0  0  0  0  0  0  0  0  0  0
   -3.0624   11.1690    0.0000 C   0  0  0  0  0  0  0  0  0  0  0  0
   -1.6374    9.8699    0.0000 C   0  0  0  0  0  0  0  0  0  0  0  0
   -5.8299    8.1963    0.0000 C   0  0  0  0  0  0  0  0  0  0  0  0
   -5.4099    9.6363    0.0000 O   0  0  0  0  0  0  0  0  0  0  0  0
   -7.2580    8.6551    0.0000 N   0  0  0  0  0  0  0  0  0  0  0  0
   -8.7472    8.8353    0.0000 C   0  0  0  0  0  0  0  0  0  0  0  0
   -9.5056   10.1295    0.0000 C   0  0  0  0  0  0  0  0  0  0  0  0
   -8.7641   11.4333    0.0000 C   0  0  0  0  0  0  0  0  0  0  0  0
   -7.2733   11.5998    0.0000 C   0  0  0  0  0  0  0  0  0  0  0  0
   -6.9710   13.0691    0.0000 N   0  0  0  0  0  0  0  0  0  0  0  0
   -8.2749   13.8106    0.0000 C   0  0  0  0  0  0  0  0  0  0  0  0
   -8.5963   15.2758    0.0000 C   0  0  0  0  0  0  0  0  0  0  0  0
  -10.0259   15.7300    0.0000 C   0  0  0  0  0  0  0  0  0  0  0  0
  -11.1340   14.7191    0.0000 C   0  0  0  0  0  0  0  0  0  0  0  0
  -10.8126   13.2539    0.0000 C   0  0  0  0  0  0  0  0  0  0  0  0
   -9.3831   12.7997    0.0000 C   0  0  0  0  0  0  0  0  0  0  0  0
  -10.2435    8.7305    0.0000 C   0  0  0  0  0  0  0  0  0  0  0  0
  -10.6686   10.1690    0.0000 O   0  0  0  0  0  0  0  0  0  0  0  0
  -11.6929    8.3443    0.0000 N   0  0  0  0  0  0  0  0  0  0  0  0
  -13.0431    7.6908    0.0000 C   0  0  0  0  0  0  0  0  0  0  0  0
  -14.3808    8.3695    0.0000 C   0  0  0  0  0  0  0  0  0  0  0  0
  -14.4619    9.8673    0.0000 C   0  0  0  0  0  0  0  0  0  0  0  0
  -15.7996   10.5459    0.0000 C   0  0  0  0  0  0  0  0  0  0  0  0
  -15.8807   12.0437    0.0000 C   0  0  0  0  0  0  0  0  0  0  0  0
  -17.2184   12.7224    0.0000 N   0  0  0  0  0  0  0  0  0  0  0  0
  -14.2452    6.7936    0.0000 C   0  0  0  0  0  0  0  0  0  0  0  0
  -15.3806    7.7739    0.0000 O   0  0  0  0  0  0  0  0  0  0  0  0
  -15.2558    5.6851    0.0000 N   0  0  0  0  0  0  0  0  0  0  0  0
  -16.0383    4.4054    0.0000 C   0  0  0  0  0  0  0  0  0  0  0  0
  -17.5306    4.2532    0.0000 C   0  0  0  0  0  0  0  0  0  0  0  0
  -18.4086    5.4693    0.0000 C   0  0  0  0  0  0  0  0  0  0  0  0
  -19.9008    5.3170    0.0000 C   0  0  0  0  0  0  0  0  0  0  0  0
  -18.8177    6.9125    0.0000 C   0  0  0  0  0  0  0  0  0  0  0  0
  -16.5645    3.0008    0.0000 C   0  0  0  0  0  0  0  0  0  0  0  0
  -18.0496    3.2116    0.0000 O   0  0  0  0  0  0  0  0  0  0  0  0
  -16.8154    1.5219    0.0000 N   0  0  0  0  0  0  0  0  0  0  0  0
  -16.7818    0.0223    0.0000 C   0  0  0  0  0  0  0  0  0  0  0  0
  -17.9549   -0.9126    0.0000 C   0  0  0  0  0  0  0  0  0  0  0  0
  -19.3510   -0.3642    0.0000 C   0  0  0  0  0  0  0  0  0  0  0  0
  -20.5240   -1.2991    0.0000 C   0  0  0  0  0  0  0  0  0  0  0  0
  -20.4754    0.6287    0.0000 C   0  0  0  0  0  0  0  0  0  0  0  0
  -16.4651   -1.4439    0.0000 C   0  0  0  0  0  0  0  0  0  0  0  0
  -17.8284   -2.0694    0.0000 O   0  0  0  0  0  0  0  0  0  0  0  0
  -15.8766   -2.8236    0.0000 N   0  0  0  0  0  0  0  0  0  0  0  0
  -15.0376   -4.0671    0.0000 C   0  0  0  0  0  0  0  0  0  0  0  0
  -13.9785   -5.1292    0.0000 C   0  0  0  0  0  0  0  0  0  0  0  0
  -12.7375   -5.9718    0.0000 C   0  0  0  0  0  0  0  0  0  0  0  0
  -11.3594   -6.5642    0.0000 C   0  0  0  0  0  0  0  0  0  0  0  0
   -9.8941   -6.8852    0.0000 C   0  0  0  0  0  0  0  0  0  0  0  0
  -16.5243   -4.2666    0.0000 C   0  0  0  0  0  0  0  0  0  0  0  0
  -15.5190   -5.4877    0.0000 C   0  0  0  0  0  0  0  0  0  0  0  0
  -14.8315   -6.8209    0.0000 O   0  0  0  0  0  0  0  0  0  0  0  0
  -16.9900   -5.7812    0.0000 N   0  0  0  0  0  0  0  0  0  0  0  0
  -17.4714   -7.2018    0.0000 C   0  0  0  0  0  0  0  0  0  0  0  0
  -17.4378   -8.7015    0.0000 C   0  0  0  0  0  0  0  0  0  0  0  0
  -18.7198   -9.4803    0.0000 C   0  0  0  0  0  0  0  0  0  0  0  0
  -18.6862  -10.9799    0.0000 C   0  0  0  0  0  0  0  0  0  0  0  0
  -19.8637  -11.9093    0.0000 O   0  0  0  0  0  0  0  0  0  0  0  0
  -17.3707  -11.7007    0.0000 O   0  0  0  0  0  0  0  0  0  0  0  0
  -18.9424   -7.4953    0.0000 C   0  0  0  0  0  0  0  0  0  0  0  0
  -19.9320   -6.3681    0.0000 O   0  0  0  0  0  0  0  0  0  0  0  0
  -19.4238   -8.9159    0.0000 N   0  0  0  0  0  0  0  0  0  0  0  0
  -20.8948   -9.2094    0.0000 C   0  0  0  0  0  0  0  0  0  0  0  0
  -22.3775   -8.9820    0.0000 C   0  0  0  0  0  0  0  0  0  0  0  0
  -22.9219   -7.5843    0.0000 C   0  0  0  0  0  0  0  0  0  0  0  0
  -24.4046   -7.3569    0.0000 N   0  0  0  0  0  0  0  0  0  0  0  0
  -21.9836   -6.4140    0.0000 O   0  0  0  0  0  0  0  0  0  0  0  0
  -21.3762  -10.6300    0.0000 C   0  0  0  0  0  0  0  0  0  0  0  0
  -22.8004  -11.1006    0.0000 O   0  0  0  0  0  0  0  0  0  0  0  0
  -20.5313  -11.8695    0.0000 O   0  0  0  0  0  0  0  0  0  0  0  0
   22.5102    4.1646    0.0000 H   0  0  0  0  0  0  0  0  0  0  0  0
   25.9960    1.3304    0.0000 H   0  0  0  0  0  0  0  0  0  0  0  0
   28.8401    2.2850    0.0000 H   0  0  0  0  0  0  0  0  0  0  0  0
   24.1357    5.9549    0.0000 H   0  0  0  0  0  0  0  0  0  0  0  0
   27.4355   12.3130    0.0000 H   0  0  0  0  0  0  0  0  0  0  0  0
   31.9604    9.7586    0.0000 H   0  0  0  0  0  0  0  0  0  0  0  0
   30.4856    7.1461    0.0000 H   0  0  0  0  0  0  0  0  0  0  0  0
   31.9353   12.3565    0.0000 H   0  0  0  0  0  0  0  0  0  0  0  0
   26.0110    4.5046    0.0000 H   0  0  0  0  0  0  0  0  0  0  0  0
   22.8574    4.5752    0.0000 H   0  0  0  0  0  0  0  0  0  0  0  0
   22.9609    9.6715    0.0000 H   0  0  0  0  0  0  0  0  0  0  0  0
   20.7235    8.3508    0.0000 H   0  0  0  0  0  0  0  0  0  0  0  0
   20.9032    2.3615    0.0000 H   0  0  0  0  0  0  0  0  0  0  0  0
   23.2294   -0.1393    0.0000 H   0  0  0  0  0  0  0  0  0  0  0  0
   22.3053   -1.4867    0.0000 H   0  0  0  0  0  0  0  0  0  0  0  0
   19.9056    0.8663    0.0000 H   0  0  0  0  0  0  0  0  0  0  0  0
   18.8241   -0.3585    0.0000 H   0  0  0  0  0  0  0  0  0  0  0  0
   17.4638   -1.5334    0.0000 H   0  0  0  0  0  0  0  0  0  0  0  0
   16.8944   -3.4480    0.0000 H   0  0  0  0  0  0  0  0  0  0  0  0
   21.1089   -4.7488    0.0000 H   0  0  0  0  0  0  0  0  0  0  0  0
   19.4924   -5.5045    0.0000 H   0  0  0  0  0  0  0  0  0  0  0  0
   19.3506   -1.8846    0.0000 H   0  0  0  0  0  0  0  0  0  0  0  0
   23.1410   -1.7401    0.0000 H   0  0  0  0  0  0  0  0  0  0  0  0
   23.4682   -3.3409    0.0000 H   0  0  0  0  0  0  0  0  0  0  0  0
   21.9559   -4.2879    0.0000 H   0  0  0  0  0  0  0  0  0  0  0  0
   22.2923   -0.8071    0.0000 H   0  0  0  0  0  0  0  0  0  0  0  0
   20.8296    0.2150    0.0000 H   0  0  0  0  0  0  0  0  0  0  0  0
   19.3773   -1.4296    0.0000 H   0  0  0  0  0  0  0  0  0  0  0  0
   15.2915   -3.9208    0.0000 H   0  0  0  0  0  0  0  0  0  0  0  0
   14.1015   -5.5251    0.0000 H   0  0  0  0  0  0  0  0  0  0  0  0
   17.7464   -8.0593    0.0000 H   0  0  0  0  0  0  0  0  0  0  0  0
   16.0014   -8.4320    0.0000 H   0  0  0  0  0  0  0  0  0  0  0  0
   19.1912   -6.6800    0.0000 H   0  0  0  0  0  0  0  0  0  0  0  0
   12.4336   -5.4212    0.0000 H   0  0  0  0  0  0  0  0  0  0  0  0
   10.7667   -6.5218    0.0000 H   0  0  0  0  0  0  0  0  0  0  0  0
   13.3251  -10.1498    0.0000 H   0  0  0  0  0  0  0  0  0  0  0  0
   11.5578   -9.9031    0.0000 H   0  0  0  0  0  0  0  0  0  0  0  0
   15.2031   -7.4200    0.0000 H   0  0  0  0  0  0  0  0  0  0  0  0
   13.6533   -6.9030    0.0000 H   0  0  0  0  0  0  0  0  0  0  0  0
   17.7009   -9.8633    0.0000 H   0  0  0  0  0  0  0  0  0  0  0  0
   17.2653   -7.5098    0.0000 H   0  0  0  0  0  0  0  0  0  0  0  0
    9.2350   -5.8536    0.0000 H   0  0  0  0  0  0  0  0  0  0  0  0
    7.2922   -6.3178    0.0000 H   0  0  0  0  0  0  0  0  0  0  0  0
    8.4554  -10.6020    0.0000 H   0  0  0  0  0  0  0  0  0  0  0  0
    6.8102   -9.5959    0.0000 H   0  0  0  0  0  0  0  0  0  0  0  0
   11.1538   -8.6792    0.0000 H   0  0  0  0  0  0  0  0  0  0  0  0
    9.8742   -7.6633    0.0000 H   0  0  0  0  0  0  0  0  0  0  0  0
    6.0813   -5.1660    0.0000 H   0  0  0  0  0  0  0  0  0  0  0  0
    4.0969   -4.9377    0.0000 H   0  0  0  0  0  0  0  0  0  0  0  0
    2.5228   -7.8533    0.0000 H   0  0  0  0  0  0  0  0  0  0  0  0
    4.7197  -10.4839    0.0000 H   0  0  0  0  0  0  0  0  0  0  0  0
    5.8000   -9.8765    0.0000 H   0  0  0  0  0  0  0  0  0  0  0  0
    6.9180   -8.4774    0.0000 H   0  0  0  0  0  0  0  0  0  0  0  0
    6.2778   -7.2126    0.0000 H   0  0  0  0  0  0  0  0  0  0  0  0
    3.2303   -3.3052    0.0000 H   0  0  0  0  0  0  0  0  0  0  0  0
    1.5664   -2.5480    0.0000 H   0  0  0  0  0  0  0  0  0  0  0  0
   -0.2964   -6.5776    0.0000 H   0  0  0  0  0  0  0  0  0  0  0  0
   -0.9100   -4.7494    0.0000 H   0  0  0  0  0  0  0  0  0  0  0  0
   -0.1092   -8.2382    0.0000 H   0  0  0  0  0  0  0  0  0  0  0  0
    2.1396  -10.2239    0.0000 H   0  0  0  0  0  0  0  0  0  0  0  0
    4.8543   -9.3990    0.0000 H   0  0  0  0  0  0  0  0  0  0  0  0
    5.6266   -6.5059    0.0000 H   0  0  0  0  0  0  0  0  0  0  0  0
    3.5072   -4.3905    0.0000 H   0  0  0  0  0  0  0  0  0  0  0  0
    1.4267   -1.0643    0.0000 H   0  0  0  0  0  0  0  0  0  0  0  0
   -0.0593   -1.8913    0.0000 H   0  0  0  0  0  0  0  0  0  0  0  0
   -0.7930   -3.1107    0.0000 H   0  0  0  0  0  0  0  0  0  0  0  0
   -0.8111   -3.6970    0.0000 H   0  0  0  0  0  0  0  0  0  0  0  0
   -1.5401   -4.5081    0.0000 H   0  0  0  0  0  0  0  0  0  0  0  0
   -1.6408   -4.6422    0.0000 H   0  0  0  0  0  0  0  0  0  0  0  0
   -2.5336   -5.7504    0.0000 H   0  0  0  0  0  0  0  0  0  0  0  0
   -2.9080   -6.0899    0.0000 H   0  0  0  0  0  0  0  0  0  0  0  0
   -3.9171   -6.8430    0.0000 H   0  0  0  0  0  0  0  0  0  0  0  0
   -4.3490   -7.1054    0.0000 H   0  0  0  0  0  0  0  0  0  0  0  0
   -5.4824   -7.6540    0.0000 H   0  0  0  0  0  0  0  0  0  0  0  0
   -5.9562   -7.8299    0.0000 H   0  0  0  0  0  0  0  0  0  0  0  0
   -7.3511   -8.1116    0.0000 H   0  0  0  0  0  0  0  0  0  0  0  0
   -8.2898   -8.4194    0.0000 H   0  0  0  0  0  0  0  0  0  0  0  0
    1.5100   -0.5735    0.0000 H   0  0  0  0  0  0  0  0  0  0  0  0
    1.4475    1.0592    0.0000 H   0  0  0  0  0  0  0  0  0  0  0  0
   -0.2466    1.6198    0.0000 H   0  0  0  0  0  0  0  0  0  0  0  0
    0.2321    2.9306    0.0000 H   0  0  0  0  0  0  0  0  0  0  0  0
   -0.2061    3.8159    0.0000 H   0  0  0  0  0  0  0  0  0  0  0  0
   -0.2627    6.6608    0.0000 H   0  0  0  0  0  0  0  0  0  0  0  0
   -1.9909    6.2165    0.0000 H   0  0  0  0  0  0  0  0  0  0  0  0
   -2.1758    7.4407    0.0000 H   0  0  0  0  0  0  0  0  0  0  0  0
   -3.0800    7.9143    0.0000 H   0  0  0  0  0  0  0  0  0  0  0  0
   -4.9075   10.4037    0.0000 H   0  0  0  0  0  0  0  0  0  0  0  0
   -5.9436    9.1404    0.0000 H   0  0  0  0  0  0  0  0  0  0  0  0
   -2.3370    8.3934    0.0000 H   0  0  0  0  0  0  0  0  0  0  0  0
   -1.8284   12.0218    0.0000 H   0  0  0  0  0  0  0  0  0  0  0  0
   -3.5171   12.5985    0.0000 H   0  0  0  0  0  0  0  0  0  0  0  0
   -4.5623   11.1522    0.0000 H   0  0  0  0  0  0  0  0  0  0  0  0
   -0.9020   11.1773    0.0000 H   0  0  0  0  0  0  0  0  0  0  0  0
   -0.1721    9.5489    0.0000 H   0  0  0  0  0  0  0  0  0  0  0  0
   -1.6990    8.3711    0.0000 H   0  0  0  0  0  0  0  0  0  0  0  0
   -6.7609   10.0703    0.0000 H   0  0  0  0  0  0  0  0  0  0  0  0
   -7.9244   10.0896    0.0000 H   0  0  0  0  0  0  0  0  0  0  0  0
  -10.5357   11.2198    0.0000 H   0  0  0  0  0  0  0  0  0  0  0  0
  -10.8495    9.4632    0.0000 H   0  0  0  0  0  0  0  0  0  0  0  0
   -6.1349   10.6232    0.0000 H   0  0  0  0  0  0  0  0  0  0  0  0
   -5.6047   13.6881    0.0000 H   0  0  0  0  0  0  0  0  0  0  0  0
   -7.4881   16.2867    0.0000 H   0  0  0  0  0  0  0  0  0  0  0  0
  -10.3473   17.1952    0.0000 H   0  0  0  0  0  0  0  0  0  0  0  0
  -12.5636   15.1733    0.0000 H   0  0  0  0  0  0  0  0  0  0  0  0
  -11.9208   12.2430    0.0000 H   0  0  0  0  0  0  0  0  0  0  0  0
  -12.0398    9.8036    0.0000 H   0  0  0  0  0  0  0  0  0  0  0  0
  -12.8463    9.1779    0.0000 H   0  0  0  0  0  0  0  0  0  0  0  0
  -15.8699    8.5497    0.0000 H   0  0  0  0  0  0  0  0  0  0  0  0
  -15.1512    7.0824    0.0000 H   0  0  0  0  0  0  0  0  0  0  0  0
  -13.8542   11.2386    0.0000 H   0  0  0  0  0  0  0  0  0  0  0  0
  -12.9734   10.0528    0.0000 H   0  0  0  0  0  0  0  0  0  0  0  0
  -17.2996   10.5433    0.0000 H   0  0  0  0  0  0  0  0  0  0  0  0
  -16.4074    9.1746    0.0000 H   0  0  0  0  0  0  0  0  0  0  0  0
  -15.4447   13.4790    0.0000 H   0  0  0  0  0  0  0  0  0  0  0  0
  -14.3807   12.0464    0.0000 H   0  0  0  0  0  0  0  0  0  0  0  0
  -17.2995   14.2202    0.0000 H   0  0  0  0  0  0  0  0  0  0  0  0
  -18.7076   12.9026    0.0000 H   0  0  0  0  0  0  0  0  0  0  0  0
  -17.8262   11.3510    0.0000 H   0  0  0  0  0  0  0  0  0  0  0  0
  -16.3366    6.7253    0.0000 H   0  0  0  0  0  0  0  0  0  0  0  0
  -16.6767    5.7628    0.0000 H   0  0  0  0  0  0  0  0  0  0  0  0
  -18.8807    3.5997    0.0000 H   0  0  0  0  0  0  0  0  0  0  0  0
  -17.4828    2.7539    0.0000 H   0  0  0  0  0  0  0  0  0  0  0  0
  -17.2567    6.4301    0.0000 H   0  0  0  0  0  0  0  0  0  0  0  0
  -20.9205    6.4171    0.0000 H   0  0  0  0  0  0  0  0  0  0  0  0
  -21.2510    4.6636    0.0000 H   0  0  0  0  0  0  0  0  0  0  0  0
  -19.6707    3.8348    0.0000 H   0  0  0  0  0  0  0  0  0  0  0  0
  -20.2164    7.4543    0.0000 H   0  0  0  0  0  0  0  0  0  0  0  0
  -18.7085    8.4085    0.0000 H   0  0  0  0  0  0  0  0  0  0  0  0
  -17.3254    7.0648    0.0000 H   0  0  0  0  0  0  0  0  0  0  0  0
  -18.2870    1.8126    0.0000 H   0  0  0  0  0  0  0  0  0  0  0  0
  -18.0528    0.8190    0.0000 H   0  0  0  0  0  0  0  0  0  0  0  0
  -18.7374   -2.1923    0.0000 H   0  0  0  0  0  0  0  0  0  0  0  0
  -17.1042   -2.1480    0.0000 H   0  0  0  0  0  0  0  0  0  0  0  0
  -18.9014    1.0668    0.0000 H   0  0  0  0  0  0  0  0  0  0  0  0
  -21.9766   -0.9249    0.0000 H   0  0  0  0  0  0  0  0  0  0  0  0
  -21.3066   -2.5788    0.0000 H   0  0  0  0  0  0  0  0  0  0  0  0
  -19.5291   -2.4216    0.0000 H   0  0  0  0  0  0  0  0  0  0  0  0
  -21.9450    0.3283    0.0000 H   0  0  0  0  0  0  0  0  0  0  0  0
  -21.1924    1.9462    0.0000 H   0  0  0  0  0  0  0  0  0  0  0  0
  -19.3024    1.5636    0.0000 H   0  0  0  0  0  0  0  0  0  0  0  0
  -17.2717   -3.3747    0.0000 H   0  0  0  0  0  0  0  0  0  0  0  0
  -14.1823   -6.6153    0.0000 H   0  0  0  0  0  0  0  0  0  0  0  0
  -15.2427   -5.9365    0.0000 H   0  0  0  0  0  0  0  0  0  0  0  0
  -12.8395   -7.4683    0.0000 H   0  0  0  0  0  0  0  0  0  0  0  0
  -13.8261   -7.0037    0.0000 H   0  0  0  0  0  0  0  0  0  0  0  0
  -10.9963   -8.0196    0.0000 H   0  0  0  0  0  0  0  0  0  0  0  0
  -12.3752   -7.6679    0.0000 H   0  0  0  0  0  0  0  0  0  0  0  0
  -10.0744   -8.3743    0.0000 H   0  0  0  0  0  0  0  0  0  0  0  0
  -17.4135   -5.4746    0.0000 H   0  0  0  0  0  0  0  0  0  0  0  0
  -17.9895   -3.9457    0.0000 H   0  0  0  0  0  0  0  0  0  0  0  0
  -16.8271   -2.7975    0.0000 H   0  0  0  0  0  0  0  0  0  0  0  0
  -18.1097   -4.7830    0.0000 H   0  0  0  0  0  0  0  0  0  0  0  0
  -15.9887   -7.4292    0.0000 H   0  0  0  0  0  0  0  0  0  0  0  0
  -16.8934  -10.0992    0.0000 H   0  0  0  0  0  0  0  0  0  0  0  0
  -15.9668   -8.4080    0.0000 H   0  0  0  0  0  0  0  0  0  0  0  0
  -20.1908   -9.7738    0.0000 H   0  0  0  0  0  0  0  0  0  0  0  0
  -19.8568   -8.5019    0.0000 H   0  0  0  0  0  0  0  0  0  0  0  0
  -18.7363  -10.2491    0.0000 H   0  0  0  0  0  0  0  0  0  0  0  0
  -20.9283   -7.7098    0.0000 H   0  0  0  0  0  0  0  0  0  0  0  0
  -23.8485   -9.2755    0.0000 H   0  0  0  0  0  0  0  0  0  0  0  0
  -22.5270  -10.4746    0.0000 H   0  0  0  0  0  0  0  0  0  0  0  0
  -24.9490   -5.9592    0.0000 H   0  0  0  0  0  0  0  0  0  0  0  0
  -25.3428   -8.5273    0.0000 H   0  0  0  0  0  0  0  0  0  0  0  0
  1  2  1  0
  2  3  1  0
  3  4  2  0
  4  5  1  0
  5  6  2  0
  6  7  1  0
  7  8  2  0
  7  9  1  0
  9 10  1  0
 10 11  1  0
 11 12  2  0
  9 13  1  0
 13 14  1  0
 14 15  2  0
 15 16  1  0
 16 17  2  0
 17 18  1  0
 16 19  1  0
 14 20  1  0
 20 21  1  0
 21 22  2  0
 22 23  1  0
 23 24  2  0
 24 25  1  0
 25 26  2  0
 25 27  1  0
  1 28  2  0
  1 29  1  0
 29 30  1  0
 30 31  1  0
 31 32  1  0
 32 33  2  0
 32 34  1  0
 34 35  1  0
 35 36  1  0
 36 37  1  0
 37 38  1  0
 37 39  1  0
 35 40  1  0
 40 41  2  0
 40 42  1  0
 42 43  1  0
 43 44  1  0
 44 45  1  0
 43 46  1  0
 46 47  2  0
 46 48  1  0
 48 49  1  0
 49 50  1  0
 50 51  1  0
 51 52  1  0
 52 53  1  0
 52 54  2  0
 49 55  1  0
 55 56  2  0
 55 57  1  0
 57 58  1  0
 58 59  1  0
 59 60  1  0
 60 61  1  0
 61 62  2  0
 61 63  1  0
 58 64  1  0
 64 65  2  0
 64 66  1  0
 66 67  1  0
 67 68  1  0
 68 69  1  0
 68 70  1  0
 67 71  1  0
 71 72  2  0
 71 73  1  0
 73 74  1  0
 74 75  1  0
 75 76  1  0
 76 77  2  0
 77 78  1  0
 78 79  2  0
 79 80  1  0
 80 81  2  0
 74 82  1  0
 82 83  2  0
 82 84  1  0
 85 84  1  6
 85 86  1  0
 86 87  1  0
 87 88  1  0
 88 89  1  0
 89 90  1  0
 90 91  1  0
 91 92  1  0
 85 93  1  0
 85 94  1  0
 94 95  2  0
 94 96  1  0
 96 97  1  0
 97 98  1  0
 98 99  1  0
 99100  2  0
 99101  1  0
 97102  1  0
102103  2  0
102104  1  0
104105  1  0
105106  1  0
106107  1  0
107108  1  0
107109  1  0
105110  1  0
110111  2  0
110112  1  0
112113  1  0
113114  1  0
114115  1  0
115116  2  0
116117  1  0
117118  1  0
118119  2  0
119120  1  0
120121  2  0
121122  1  0
122123  2  0
113124  1  0
124125  2  0
124126  1  0
126127  1  0
127128  1  0
128129  1  0
129130  1  0
130131  1  0
131132  1  0
127133  1  0
133134  2  0
133135  1  0
135136  1  0
136137  1  0
137138  1  0
138139  1  0
138140  1  0
136141  1  0
141142  2  0
141143  1  0
143144  1  0
144145  1  0
145146  1  0
146147  1  0
146148  1  0
144149  1  0
149150  2  0
149151  1  0
151152  1  0
152153  1  0
153154  1  0
154155  1  0
155156  1  0
152157  1  0
152158  1  1
158159  2  0
158160  1  0
160161  1  0
161162  1  0
162163  1  0
163164  1  0
164165  2  0
164166  1  0
161167  1  0
167168  2  0
167169  1  0
169170  1  0
170171  1  0
171172  1  0
172173  1  0
172174  2  0
170175  1  0
175176  2  0
175177  1  0
  8  3  1  0
 81 76  1  0
123115  1  0
 11  6  1  0
123118  1  0
 18 13  2  0
 92156  2  0
 22  9  1  0
 26 21  1  0
  2178  1  0
  4179  1  0
  5180  1  0
  8181  1  0
 15182  1  0
 17183  1  0
 18184  1  0
 19185  1  0
 23186  1  0
 24187  1  0
 26188  1  0
 27189  1  0
 29190  1  0
 30191  1  0
 30192  1  0
 31193  1  0
 31194  1  0
 34195  1  0
 35196  1  1
 36197  1  0
 36198  1  0
 37199  1  0
 38200  1  0
 38201  1  0
 38202  1  0
 39203  1  0
 39204  1  0
 39205  1  0
 42206  1  0
 43207  1  1
 44208  1  0
 44209  1  0
 45210  1  0
 48211  1  0
 49212  1  1
 50213  1  0
 50214  1  0
 51215  1  0
 51216  1  0
 53217  1  0
 53218  1  0
 57219  1  0
 58220  1  1
 59221  1  0
 59222  1  0
 60223  1  0
 60224  1  0
 66225  1  0
 67226  1  1
 68227  1  6
 69228  1  0
 70229  1  0
 70230  1  0
 70231  1  0
 73232  1  0
 74233  1  1
 75234  1  0
 75235  1  0
 77236  1  0
 78237  1  0
 79238  1  0
 80239  1  0
 81240  1  0
 84241  1  0
 86242  1  0
 86243  1  0
 87244  1  0
 87245  1  0
 88246  1  0
 88247  1  0
 89248  1  0
 89249  1  0
 90250  1  0
 90251  1  0
 91252  1  0
 91253  1  0
 92254  1  0
 93255  1  0
 93256  1  0
 93257  1  0
 96258  1  0
 97259  1  6
 98260  1  0
 98261  1  0
104262  1  0
105263  1  6
106264  1  0
106265  1  0
107266  1  0
108267  1  0
108268  1  0
108269  1  0
109270  1  0
109271  1  0
109272  1  0
112273  1  0
113274  1  6
114275  1  0
114276  1  0
116277  1  0
117278  1  0
119279  1  0
120280  1  0
121281  1  0
122282  1  0
126283  1  0
127284  1  6
128285  1  0
128286  1  0
129287  1  0
129288  1  0
130289  1  0
130290  1  0
131291  1  0
131292  1  0
132293  1  0
132294  1  0
132295  1  0
135296  1  0
136297  1  6
137298  1  0
137299  1  0
138300  1  0
139301  1  0
139302  1  0
139303  1  0
140304  1  0
140305  1  0
140306  1  0
143307  1  0
144308  1  6
145309  1  0
145310  1  0
146311  1  0
147312  1  0
147313  1  0
147314  1  0
148315  1  0
148316  1  0
148317  1  0
151318  1  0
153319  1  0
153320  1  0
154321  1  0
154322  1  0
155323  1  0
155324  1  0
156325  1  0
157326  1  0
157327  1  0
157328  1  0
160329  1  0
161330  1  1
162331  1  0
162332  1  0
163333  1  0
163334  1  0
169335  1  0
170336  1  6
171337  1  0
171338  1  0
173339  1  0
173340  1  0
M  CHG  5  63  -1 101  -1 132   1 166  -1 177  -1
M  END
