
     RDKit          2D

469477  0  0  0  0  0  0  0  0999 V2000
   25.2302   11.3142    0.0000 C   0  0  0  0  0  0  0  0  0  0  0  0
   24.8578   12.7673    0.0000 N   0  0  0  0  0  0  0  0  0  0  0  0
   25.9301   13.8163    0.0000 C   0  0  0  0  0  0  0  0  0  0  0  0
   27.3746   13.4122    0.0000 C   0  0  0  0  0  0  0  0  0  0  0  0
   28.4468   14.4612    0.0000 C   0  0  0  0  0  0  0  0  0  0  0  0
   28.0745   15.9142    0.0000 C   0  0  0  0  0  0  0  0  0  0  0  0
   26.6299   16.3183    0.0000 C   0  0  0  0  0  0  0  0  0  0  0  0
   25.5577   15.2693    0.0000 C   0  0  0  0  0  0  0  0  0  0  0  0
   26.5679   17.8170    0.0000 C   0  0  0  0  0  0  0  0  0  0  0  0
   27.9740   18.3392    0.0000 O   0  0  0  0  0  0  0  0  0  0  0  0
   28.9052   17.1632    0.0000 C   0  0  0  0  0  0  0  0  0  0  0  0
   30.4039   17.2253    0.0000 O   0  0  0  0  0  0  0  0  0  0  0  0
   26.6628   19.3140    0.0000 C   0  0  0  0  0  0  0  0  0  0  0  0
   25.4138   20.1447    0.0000 C   0  0  0  0  0  0  0  0  0  0  0  0
   25.5087   21.6417    0.0000 C   0  0  0  0  0  0  0  0  0  0  0  0
   26.8526   22.3080    0.0000 C   0  0  0  0  0  0  0  0  0  0  0  0
   28.1016   21.4773    0.0000 C   0  0  0  0  0  0  0  0  0  0  0  0
   28.0067   19.9803    0.0000 C   0  0  0  0  0  0  0  0  0  0  0  0
   26.9475   23.8050    0.0000 O   0  0  0  0  0  0  0  0  0  0  0  0
   24.0699   19.4784    0.0000 O   0  0  0  0  0  0  0  0  0  0  0  0
   23.9750   17.9814    0.0000 C   0  0  0  0  0  0  0  0  0  0  0  0
   25.2240   17.1507    0.0000 C   0  0  0  0  0  0  0  0  0  0  0  0
   24.5462   16.0414    0.0000 C   0  0  0  0  0  0  0  0  0  0  0  0
   23.8295   15.6860    0.0000 C   0  0  0  0  0  0  0  0  0  0  0  0
   23.1633   16.1291    0.0000 C   0  0  0  0  0  0  0  0  0  0  0  0
   23.2140   16.9275    0.0000 C   0  0  0  0  0  0  0  0  0  0  0  0
   21.1923   15.1518    0.0000 O   0  0  0  0  0  0  0  0  0  0  0  0
   26.6747   10.9102    0.0000 S   0  0  0  0  0  0  0  0  0  0  0  0
   24.1580   10.2653    0.0000 N   0  0  0  0  0  0  0  0  0  0  0  0
   24.5303    8.8122    0.0000 C   0  0  0  0  0  0  0  0  0  0  0  0
   23.4581    7.7632    0.0000 C   0  0  0  0  0  0  0  0  0  0  0  0
   23.8304    6.3102    0.0000 C   0  0  0  0  0  0  0  0  0  0  0  0
   24.6272    6.2876    0.0000 O   0  0  0  0  0  0  0  0  0  0  0  0
   22.7582    5.2612    0.0000 N   0  0  0  0  0  0  0  0  0  0  0  0
   23.1305    3.8081    0.0000 C   0  0  0  0  0  0  0  0  0  0  0  0
   24.4968    4.4271    0.0000 C   0  0  0  0  0  0  0  0  0  0  0  0
   24.6439    5.9199    0.0000 C   0  0  0  0  0  0  0  0  0  0  0  0
   26.0103    6.5389    0.0000 C   0  0  0  0  0  0  0  0  0  0  0  0
   26.1574    8.0317    0.0000 C   0  0  0  0  0  0  0  0  0  0  0  0
   27.5237    8.6507    0.0000 N   0  0  0  0  0  0  0  0  0  0  0  0
   22.9834    2.3154    0.0000 C   0  0  0  0  0  0  0  0  0  0  0  0
   24.3001    1.5967    0.0000 O   0  0  0  0  0  0  0  0  0  0  0  0
   21.6171    1.6964    0.0000 N   0  0  0  0  0  0  0  0  0  0  0  0
   21.4700    0.2036    0.0000 C   0  0  0  0  0  0  0  0  0  0  0  0
   22.9656    0.3180    0.0000 C   0  0  0  0  0  0  0  0  0  0  0  0
   20.8212   -1.1488    0.0000 C   0  0  0  0  0  0  0  0  0  0  0  0
   21.8127   -2.2744    0.0000 O   0  0  0  0  0  0  0  0  0  0  0  0
   19.3256   -1.2632    0.0000 N   0  0  0  0  0  0  0  0  0  0  0  0
   18.6768   -2.6156    0.0000 C   0  0  0  0  0  0  0  0  0  0  0  0
   20.1213   -3.0197    0.0000 C   0  0  0  0  0  0  0  0  0  0  0  0
   21.3406   -3.8935    0.0000 O   0  0  0  0  0  0  0  0  0  0  0  0
   21.3134   -2.1092    0.0000 C   0  0  0  0  0  0  0  0  0  0  0  0
   17.6046   -3.6646    0.0000 C   0  0  0  0  0  0  0  0  0  0  0  0
   18.3174   -4.9844    0.0000 O   0  0  0  0  0  0  0  0  0  0  0  0
   16.1600   -3.2605    0.0000 N   0  0  0  0  0  0  0  0  0  0  0  0
   15.0878   -4.3095    0.0000 C   0  0  0  0  0  0  0  0  0  0  0  0
   16.3070   -5.1833    0.0000 C   0  0  0  0  0  0  0  0  0  0  0  0
   17.6734   -4.5643    0.0000 C   0  0  0  0  0  0  0  0  0  0  0  0
   18.8926   -5.4380    0.0000 C   0  0  0  0  0  0  0  0  0  0  0  0
   20.3242   -4.9902    0.0000 O   0  0  0  0  0  0  0  0  0  0  0  0
   18.7455   -6.9308    0.0000 O   0  0  0  0  0  0  0  0  0  0  0  0
   13.7215   -4.9285    0.0000 C   0  0  0  0  0  0  0  0  0  0  0  0
   13.5744   -6.4212    0.0000 O   0  0  0  0  0  0  0  0  0  0  0  0
   12.5022   -4.0547    0.0000 N   0  0  0  0  0  0  0  0  0  0  0  0
   11.1359   -4.6737    0.0000 C   0  0  0  0  0  0  0  0  0  0  0  0
   10.7636   -3.2206    0.0000 C   0  0  0  0  0  0  0  0  0  0  0  0
   11.8358   -2.1717    0.0000 C   0  0  0  0  0  0  0  0  0  0  0  0
   13.2804   -2.5757    0.0000 C   0  0  0  0  0  0  0  0  0  0  0  0
   14.3526   -1.5268    0.0000 C   0  0  0  0  0  0  0  0  0  0  0  0
   13.9802   -0.0737    0.0000 C   0  0  0  0  0  0  0  0  0  0  0  0
   15.0525    0.9753    0.0000 O   0  0  0  0  0  0  0  0  0  0  0  0
   12.5357    0.3304    0.0000 C   0  0  0  0  0  0  0  0  0  0  0  0
   11.4635   -0.7186    0.0000 C   0  0  0  0  0  0  0  0  0  0  0  0
   10.0637   -5.7227    0.0000 C   0  0  0  0  0  0  0  0  0  0  0  0
    8.7599   -4.9811    0.0000 O   0  0  0  0  0  0  0  0  0  0  0  0
   10.4360   -7.1757    0.0000 N   0  0  0  0  0  0  0  0  0  0  0  0
    9.3638   -8.2247    0.0000 C   0  0  0  0  0  0  0  0  0  0  0  0
    8.5170   -6.9866    0.0000 C   0  0  0  0  0  0  0  0  0  0  0  0
    9.1657   -5.6342    0.0000 C   0  0  0  0  0  0  0  0  0  0  0  0
    7.2977   -6.1128    0.0000 C   0  0  0  0  0  0  0  0  0  0  0  0
    7.4448   -4.6201    0.0000 C   0  0  0  0  0  0  0  0  0  0  0  0
    8.7150   -9.5771    0.0000 C   0  0  0  0  0  0  0  0  0  0  0  0
    7.2194   -9.6915    0.0000 O   0  0  0  0  0  0  0  0  0  0  0  0
    9.5619  -10.8152    0.0000 N   0  0  0  0  0  0  0  0  0  0  0  0
    8.9131  -12.1676    0.0000 C   0  0  0  0  0  0  0  0  0  0  0  0
   10.3576  -12.5717    0.0000 C   0  0  0  0  0  0  0  0  0  0  0  0
   11.4299  -11.5228    0.0000 C   0  0  0  0  0  0  0  0  0  0  0  0
   12.8744  -11.9268    0.0000 C   0  0  0  0  0  0  0  0  0  0  0  0
   13.9466  -10.8779    0.0000 N   0  0  0  0  0  0  0  0  0  0  0  0
   13.2467  -13.3799    0.0000 O   0  0  0  0  0  0  0  0  0  0  0  0
    7.8409  -13.2166    0.0000 C   0  0  0  0  0  0  0  0  0  0  0  0
    8.5537  -14.5364    0.0000 O   0  0  0  0  0  0  0  0  0  0  0  0
    6.3963  -12.8125    0.0000 N   0  0  0  0  0  0  0  0  0  0  0  0
    5.3241  -13.8615    0.0000 C   0  0  0  0  0  0  0  0  0  0  0  0
    6.5433  -14.7353    0.0000 C   0  0  0  0  0  0  0  0  0  0  0  0
    7.9097  -14.1163    0.0000 C   0  0  0  0  0  0  0  0  0  0  0  0
    9.1289  -14.9901    0.0000 C   0  0  0  0  0  0  0  0  0  0  0  0
   10.4952  -14.3711    0.0000 C   0  0  0  0  0  0  0  0  0  0  0  0
   10.6423  -12.8783    0.0000 C   0  0  0  0  0  0  0  0  0  0  0  0
   12.0086  -12.2593    0.0000 O   0  0  0  0  0  0  0  0  0  0  0  0
    9.4231  -12.0045    0.0000 C   0  0  0  0  0  0  0  0  0  0  0  0
    8.0568  -12.6235    0.0000 C   0  0  0  0  0  0  0  0  0  0  0  0
    3.9578  -14.4805    0.0000 C   0  0  0  0  0  0  0  0  0  0  0  0
    4.1763  -15.9645    0.0000 O   0  0  0  0  0  0  0  0  0  0  0  0
    2.7386  -13.6067    0.0000 N   0  0  0  0  0  0  0  0  0  0  0  0
    1.3722  -14.2257    0.0000 C   0  0  0  0  0  0  0  0  0  0  0  0
    2.2191  -15.4638    0.0000 C   0  0  0  0  0  0  0  0  0  0  0  0
    3.7147  -15.3495    0.0000 C   0  0  0  0  0  0  0  0  0  0  0  0
    4.5616  -16.5875    0.0000 C   0  0  0  0  0  0  0  0  0  0  0  0
    6.0572  -16.4732    0.0000 C   0  0  0  0  0  0  0  0  0  0  0  0
   -0.1234  -14.3401    0.0000 C   0  0  0  0  0  0  0  0  0  0  0  0
   -0.4257  -15.8093    0.0000 O   0  0  0  0  0  0  0  0  0  0  0  0
   -0.9703  -13.1020    0.0000 N   0  0  0  0  0  0  0  0  0  0  0  0
   -2.4659  -13.2164    0.0000 C   0  0  0  0  0  0  0  0  0  0  0  0
   -2.0936  -14.6694    0.0000 C   0  0  0  0  0  0  0  0  0  0  0  0
   -0.6490  -15.0735    0.0000 C   0  0  0  0  0  0  0  0  0  0  0  0
   -0.2767  -16.5265    0.0000 C   0  0  0  0  0  0  0  0  0  0  0  0
    1.1679  -16.9306    0.0000 N   0  0  0  0  0  0  0  0  0  0  0  0
    1.5402  -18.3837    0.0000 C   0  0  0  0  0  0  0  0  0  0  0  0
    2.9847  -18.7878    0.0000 N   0  0  0  0  0  0  0  0  0  0  0  0
    0.4680  -19.4327    0.0000 N   0  0  0  0  0  0  0  0  0  0  0  0
   -3.9104  -12.8123    0.0000 C   0  0  0  0  0  0  0  0  0  0  0  0
   -4.6970  -14.0895    0.0000 O   0  0  0  0  0  0  0  0  0  0  0  0
   -4.2828  -11.3592    0.0000 N   0  0  0  0  0  0  0  0  0  0  0  0
   -5.7273  -10.9551    0.0000 C   0  0  0  0  0  0  0  0  0  0  0  0
   -5.8744  -12.4479    0.0000 C   0  0  0  0  0  0  0  0  0  0  0  0
   -4.6552  -13.3217    0.0000 C   0  0  0  0  0  0  0  0  0  0  0  0
   -4.8023  -14.8145    0.0000 C   0  0  0  0  0  0  0  0  0  0  0  0
   -3.5831  -15.6882    0.0000 N   0  0  0  0  0  0  0  0  0  0  0  0
   -3.7302  -17.1810    0.0000 C   0  0  0  0  0  0  0  0  0  0  0  0
   -2.5109  -18.0548    0.0000 N   0  0  0  0  0  0  0  0  0  0  0  0
   -5.0965  -17.8000    0.0000 N   0  0  0  0  0  0  0  0  0  0  0  0
   -6.9465  -10.0814    0.0000 C   0  0  0  0  0  0  0  0  0  0  0  0
   -8.1225  -11.0126    0.0000 O   0  0  0  0  0  0  0  0  0  0  0  0
   -6.7994   -8.5886    0.0000 N   0  0  0  0  0  0  0  0  0  0  0  0
   -8.0187   -7.7148    0.0000 C   0  0  0  0  0  0  0  0  0  0  0  0
   -8.6675   -9.0673    0.0000 C   0  0  0  0  0  0  0  0  0  0  0  0
   -7.8206  -10.3053    0.0000 C   0  0  0  0  0  0  0  0  0  0  0  0
   -8.4694  -11.6578    0.0000 C   0  0  0  0  0  0  0  0  0  0  0  0
   -7.6225  -12.8958    0.0000 C   0  0  0  0  0  0  0  0  0  0  0  0
   -8.2713  -14.2483    0.0000 N   0  0  0  0  0  0  0  0  0  0  0  0
   -8.8655   -6.4767    0.0000 C   0  0  0  0  0  0  0  0  0  0  0  0
  -10.2890   -6.9496    0.0000 O   0  0  0  0  0  0  0  0  0  0  0  0
   -8.2167   -5.1243    0.0000 N   0  0  0  0  0  0  0  0  0  0  0  0
   -9.0636   -3.8862    0.0000 C   0  0  0  0  0  0  0  0  0  0  0  0
  -10.1358   -4.9352    0.0000 C   0  0  0  0  0  0  0  0  0  0  0  0
   -9.7635   -6.3883    0.0000 C   0  0  0  0  0  0  0  0  0  0  0  0
  -10.8357   -7.4372    0.0000 N   0  0  0  0  0  0  0  0  0  0  0  0
   -8.4596   -7.1299    0.0000 O   0  0  0  0  0  0  0  0  0  0  0  0
   -9.4359   -2.4332    0.0000 C   0  0  0  0  0  0  0  0  0  0  0  0
  -10.9353   -2.3906    0.0000 O   0  0  0  0  0  0  0  0  0  0  0  0
   -8.3637   -1.3842    0.0000 N   0  0  0  0  0  0  0  0  0  0  0  0
   -8.7360    0.0689    0.0000 C   0  0  0  0  0  0  0  0  0  0  0  0
   -9.8726   -0.9100    0.0000 C   0  0  0  0  0  0  0  0  0  0  0  0
  -11.1739   -1.6561    0.0000 C   0  0  0  0  0  0  0  0  0  0  0  0
  -12.5929   -2.1424    0.0000 C   0  0  0  0  0  0  0  0  0  0  0  0
  -14.0783   -2.3514    0.0000 C   0  0  0  0  0  0  0  0  0  0  0  0
  -15.5763   -2.2755    0.0000 C   0  0  0  0  0  0  0  0  0  0  0  0
  -17.0330   -1.9174    0.0000 C   0  0  0  0  0  0  0  0  0  0  0  0
  -18.3955   -1.2902    0.0000 C   0  0  0  0  0  0  0  0  0  0  0  0
   -7.2688   -0.2428    0.0000 C   0  0  0  0  0  0  0  0  0  0  0  0
   -7.8052    1.2451    0.0000 C   0  0  0  0  0  0  0  0  0  0  0  0
   -6.4559    0.5900    0.0000 O   0  0  0  0  0  0  0  0  0  0  0  0
   -7.1139    2.5763    0.0000 N   0  0  0  0  0  0  0  0  0  0  0  0
   -6.6869    4.0143    0.0000 C   0  0  0  0  0  0  0  0  0  0  0  0
   -5.2841    4.5453    0.0000 C   0  0  0  0  0  0  0  0  0  0  0  0
   -4.0366    5.3784    0.0000 O   0  0  0  0  0  0  0  0  0  0  0  0
   -4.1227    3.5960    0.0000 C   0  0  0  0  0  0  0  0  0  0  0  0
   -6.5398    5.5070    0.0000 C   0  0  0  0  0  0  0  0  0  0  0  0
   -5.0505    5.6854    0.0000 O   0  0  0  0  0  0  0  0  0  0  0  0
   -6.6779    7.0007    0.0000 N   0  0  0  0  0  0  0  0  0  0  0  0
   -7.0961    8.4412    0.0000 C   0  0  0  0  0  0  0  0  0  0  0  0
   -6.2031    9.6464    0.0000 C   0  0  0  0  0  0  0  0  0  0  0  0
   -4.7129    9.4756    0.0000 C   0  0  0  0  0  0  0  0  0  0  0  0
   -3.6988   10.5809    0.0000 C   0  0  0  0  0  0  0  0  0  0  0  0
   -2.3342    9.9580    0.0000 N   0  0  0  0  0  0  0  0  0  0  0  0
   -2.5050    8.4677    0.0000 C   0  0  0  0  0  0  0  0  0  0  0  0
   -3.9751    8.1696    0.0000 N   0  0  0  0  0  0  0  0  0  0  0  0
   -7.7794    9.7765    0.0000 C   0  0  0  0  0  0  0  0  0  0  0  0
   -6.6229   10.7317    0.0000 O   0  0  0  0  0  0  0  0  0  0  0  0
   -8.7031   10.9584    0.0000 N   0  0  0  0  0  0  0  0  0  0  0  0
   -9.8338   11.9441    0.0000 C   0  0  0  0  0  0  0  0  0  0  0  0
   -9.7341   13.4408    0.0000 C   0  0  0  0  0  0  0  0  0  0  0  0
   -8.3881   14.1028    0.0000 C   0  0  0  0  0  0  0  0  0  0  0  0
   -8.2884   15.5995    0.0000 C   0  0  0  0  0  0  0  0  0  0  0  0
   -6.9424   16.2615    0.0000 N   0  0  0  0  0  0  0  0  0  0  0  0
   -9.5348   16.4341    0.0000 O   0  0  0  0  0  0  0  0  0  0  0  0
  -11.1305   12.6980    0.0000 C   0  0  0  0  0  0  0  0  0  0  0  0
  -10.6740   14.1269    0.0000 O   0  0  0  0  0  0  0  0  0  0  0  0
  -12.5465   13.1929    0.0000 N   0  0  0  0  0  0  0  0  0  0  0  0
  -14.0306   13.4109    0.0000 C   0  0  0  0  0  0  0  0  0  0  0  0
  -14.7559   14.7238    0.0000 C   0  0  0  0  0  0  0  0  0  0  0  0
  -13.9815   16.0085    0.0000 C   0  0  0  0  0  0  0  0  0  0  0  0
  -14.7069   17.3214    0.0000 C   0  0  0  0  0  0  0  0  0  0  0  0
  -13.9325   18.6061    0.0000 N   0  0  0  0  0  0  0  0  0  0  0  0
  -16.2066   17.3498    0.0000 O   0  0  0  0  0  0  0  0  0  0  0  0
  -15.5291   13.3440    0.0000 C   0  0  0  0  0  0  0  0  0  0  0  0
  -15.9176   14.7928    0.0000 O   0  0  0  0  0  0  0  0  0  0  0  0
  -16.9879   12.9948    0.0000 N   0  0  0  0  0  0  0  0  0  0  0  0
  -18.3542   12.3758    0.0000 C   0  0  0  0  0  0  0  0  0  0  0  0
  -19.6743   13.0882    0.0000 C   0  0  0  0  0  0  0  0  0  0  0  0
  -19.7173   14.5876    0.0000 C   0  0  0  0  0  0  0  0  0  0  0  0
  -21.0373   15.3000    0.0000 O   0  0  0  0  0  0  0  0  0  0  0  0
  -18.4403   15.3746    0.0000 O   0  0  0  0  0  0  0  0  0  0  0  0
  -19.5787   11.5094    0.0000 C   0  0  0  0  0  0  0  0  0  0  0  0
  -20.6888   12.5182    0.0000 O   0  0  0  0  0  0  0  0  0  0  0  0
  -20.6171   10.4269    0.0000 N   0  0  0  0  0  0  0  0  0  0  0  0
  -21.4319    9.1675    0.0000 C   0  0  0  0  0  0  0  0  0  0  0  0
  -22.9275    9.0532    0.0000 C   0  0  0  0  0  0  0  0  0  0  0  0
  -23.6171   10.3852    0.0000 C   0  0  0  0  0  0  0  0  0  0  0  0
  -24.2938    8.4342    0.0000 C   0  0  0  0  0  0  0  0  0  0  0  0
  -25.5131    9.3079    0.0000 C   0  0  0  0  0  0  0  0  0  0  0  0
  -21.9936    7.7767    0.0000 C   0  0  0  0  0  0  0  0  0  0  0  0
  -23.4315    8.2036    0.0000 O   0  0  0  0  0  0  0  0  0  0  0  0
  -22.2819    6.3046    0.0000 N   0  0  0  0  0  0  0  0  0  0  0  0
  -22.2864    4.8046    0.0000 C   0  0  0  0  0  0  0  0  0  0  0  0
  -22.0070    3.3309    0.0000 C   0  0  0  0  0  0  0  0  0  0  0  0
  -21.4537    1.9367    0.0000 C   0  0  0  0  0  0  0  0  0  0  0  0
  -20.6466    0.6723    0.0000 C   0  0  0  0  0  0  0  0  0  0  0  0
  -19.6148   -0.4164    0.0000 C   0  0  0  0  0  0  0  0  0  0  0  0
  -23.6284    5.4748    0.0000 C   0  0  0  0  0  0  0  0  0  0  0  0
  -23.4828    3.8998    0.0000 C   0  0  0  0  0  0  0  0  0  0  0  0
  -23.6631    2.4107    0.0000 O   0  0  0  0  0  0  0  0  0  0  0  0
  -24.8646    4.4835    0.0000 N   0  0  0  0  0  0  0  0  0  0  0  0
  -26.0610    3.5787    0.0000 C   0  0  0  0  0  0  0  0  0  0  0  0
  -26.8758    2.3193    0.0000 C   0  0  0  0  0  0  0  0  0  0  0  0
  -28.3738    2.3952    0.0000 C   0  0  0  0  0  0  0  0  0  0  0  0
  -29.1886    1.1358    0.0000 O   0  0  0  0  0  0  0  0  0  0  0  0
  -29.3600    3.5255    0.0000 O   0  0  0  0  0  0  0  0  0  0  0  0
  -27.4428    4.1624    0.0000 C   0  0  0  0  0  0  0  0  0  0  0  0
  -27.6282    5.6509    0.0000 O   0  0  0  0  0  0  0  0  0  0  0  0
  -28.6391    3.2576    0.0000 N   0  0  0  0  0  0  0  0  0  0  0  0
  -30.0209    3.8413    0.0000 C   0  0  0  0  0  0  0  0  0  0  0  0
  -31.1197    4.8624    0.0000 C   0  0  0  0  0  0  0  0  0  0  0  0
  -32.5534    4.4214    0.0000 C   0  0  0  0  0  0  0  0  0  0  0  0
  -33.6522    5.4425    0.0000 C   0  0  0  0  0  0  0  0  0  0  0  0
  -33.7498    3.5166    0.0000 C   0  0  0  0  0  0  0  0  0  0  0  0
  -31.2173    2.9365    0.0000 C   0  0  0  0  0  0  0  0  0  0  0  0
  -32.6599    3.3474    0.0000 O   0  0  0  0  0  0  0  0  0  0  0  0
  -31.0319    1.4480    0.0000 O   0  0  0  0  0  0  0  0  0  0  0  0
   23.3748   12.9923    0.0000 H   0  0  0  0  0  0  0  0  0  0  0  0
   27.7469   11.9591    0.0000 H   0  0  0  0  0  0  0  0  0  0  0  0
   29.8914   14.0571    0.0000 H   0  0  0  0  0  0  0  0  0  0  0  0
   24.0583   15.3119    0.0000 H   0  0  0  0  0  0  0  0  0  0  0  0
   24.2597   22.4724    0.0000 H   0  0  0  0  0  0  0  0  0  0  0  0
   29.4455   22.1436    0.0000 H   0  0  0  0  0  0  0  0  0  0  0  0
   29.2556   19.1496    0.0000 H   0  0  0  0  0  0  0  0  0  0  0  0
   28.2914   24.4713    0.0000 H   0  0  0  0  0  0  0  0  0  0  0  0
   26.3780   14.8230    0.0000 H   0  0  0  0  0  0  0  0  0  0  0  0
   23.5085   13.5132    0.0000 H   0  0  0  0  0  0  0  0  0  0  0  0
   21.3821   18.1458    0.0000 H   0  0  0  0  0  0  0  0  0  0  0  0
   19.9433   15.9825    0.0000 H   0  0  0  0  0  0  0  0  0  0  0  0
   22.7134   10.6693    0.0000 H   0  0  0  0  0  0  0  0  0  0  0  0
   25.8110    9.5931    0.0000 H   0  0  0  0  0  0  0  0  0  0  0  0
   25.2199    7.4801    0.0000 H   0  0  0  0  0  0  0  0  0  0  0  0
   22.6112    9.0013    0.0000 H   0  0  0  0  0  0  0  0  0  0  0  0
   22.0917    7.1442    0.0000 H   0  0  0  0  0  0  0  0  0  0  0  0
   21.3136    5.6653    0.0000 H   0  0  0  0  0  0  0  0  0  0  0  0
   21.6349    3.6938    0.0000 H   0  0  0  0  0  0  0  0  0  0  0  0
   25.9953    4.3583    0.0000 H   0  0  0  0  0  0  0  0  0  0  0  0
   24.8692    2.9741    0.0000 H   0  0  0  0  0  0  0  0  0  0  0  0
   24.0973    7.3167    0.0000 H   0  0  0  0  0  0  0  0  0  0  0  0
   23.1651    6.1709    0.0000 H   0  0  0  0  0  0  0  0  0  0  0  0
   27.5087    6.4701    0.0000 H   0  0  0  0  0  0  0  0  0  0  0  0
   26.5569    5.1421    0.0000 H   0  0  0  0  0  0  0  0  0  0  0  0
   25.9649    9.5193    0.0000 H   0  0  0  0  0  0  0  0  0  0  0  0
   24.6617    7.9173    0.0000 H   0  0  0  0  0  0  0  0  0  0  0  0
   27.6708   10.1434    0.0000 H   0  0  0  0  0  0  0  0  0  0  0  0
   29.0193    8.7650    0.0000 H   0  0  0  0  0  0  0  0  0  0  0  0
   28.0704    7.2538    0.0000 H   0  0  0  0  0  0  0  0  0  0  0  0
   20.3979    2.5702    0.0000 H   0  0  0  0  0  0  0  0  0  0  0  0
   20.0254    0.6077    0.0000 H   0  0  0  0  0  0  0  0  0  0  0  0
   23.7744    1.5812    0.0000 H   0  0  0  0  0  0  0  0  0  0  0  0
   24.4102   -0.0861    0.0000 H   0  0  0  0  0  0  0  0  0  0  0  0
   22.8185   -1.1748    0.0000 H   0  0  0  0  0  0  0  0  0  0  0  0
   18.4787   -0.0251    0.0000 H   0  0  0  0  0  0  0  0  0  0  0  0
   17.4576   -1.7418    0.0000 H   0  0  0  0  0  0  0  0  0  0  0  0
   19.6422   -4.4411    0.0000 H   0  0  0  0  0  0  0  0  0  0  0  0
   22.7721   -3.4456    0.0000 H   0  0  0  0  0  0  0  0  0  0  0  0
   22.6606   -2.2113    0.0000 H   0  0  0  0  0  0  0  0  0  0  0  0
   21.8423   -0.6183    0.0000 H   0  0  0  0  0  0  0  0  0  0  0  0
   20.2591   -0.8030    0.0000 H   0  0  0  0  0  0  0  0  0  0  0  0
   15.9676   -1.7729    0.0000 H   0  0  0  0  0  0  0  0  0  0  0  0
   14.2409   -3.0714    0.0000 H   0  0  0  0  0  0  0  0  0  0  0  0
   17.1539   -6.4213    0.0000 H   0  0  0  0  0  0  0  0  0  0  0  0
   15.2348   -6.2322    0.0000 H   0  0  0  0  0  0  0  0  0  0  0  0
   18.7456   -3.5153    0.0000 H   0  0  0  0  0  0  0  0  0  0  0  0
   17.1513   -3.1581    0.0000 H   0  0  0  0  0  0  0  0  0  0  0  0
   13.0062   -2.6419    0.0000 H   0  0  0  0  0  0  0  0  0  0  0  0
   11.9828   -5.9118    0.0000 H   0  0  0  0  0  0  0  0  0  0  0  0
    9.9167   -1.9826    0.0000 H   0  0  0  0  0  0  0  0  0  0  0  0
    9.3973   -3.8396    0.0000 H   0  0  0  0  0  0  0  0  0  0  0  0
   13.6527   -4.0288    0.0000 H   0  0  0  0  0  0  0  0  0  0  0  0
   15.8356   -1.7517    0.0000 H   0  0  0  0  0  0  0  0  0  0  0  0
   14.6801    2.4283    0.0000 H   0  0  0  0  0  0  0  0  0  0  0  0
   12.1634    1.7834    0.0000 H   0  0  0  0  0  0  0  0  0  0  0  0
   10.0189   -0.3145    0.0000 H   0  0  0  0  0  0  0  0  0  0  0  0
   11.8806   -7.5798    0.0000 H   0  0  0  0  0  0  0  0  0  0  0  0
   10.5830   -9.0985    0.0000 H   0  0  0  0  0  0  0  0  0  0  0  0
    7.4447   -8.0356    0.0000 H   0  0  0  0  0  0  0  0  0  0  0  0
    8.4761   -4.3021    0.0000 H   0  0  0  0  0  0  0  0  0  0  0  0
   10.2380   -4.5852    0.0000 H   0  0  0  0  0  0  0  0  0  0  0  0
   10.5718   -6.1439    0.0000 H   0  0  0  0  0  0  0  0  0  0  0  0
    5.8532   -5.7088    0.0000 H   0  0  0  0  0  0  0  0  0  0  0  0
    6.6490   -7.4653    0.0000 H   0  0  0  0  0  0  0  0  0  0  0  0
    6.2256   -3.7463    0.0000 H   0  0  0  0  0  0  0  0  0  0  0  0
    8.0936   -3.2676    0.0000 H   0  0  0  0  0  0  0  0  0  0  0  0
    8.9382   -4.4795    0.0000 H   0  0  0  0  0  0  0  0  0  0  0  0
   11.0324  -10.5194    0.0000 H   0  0  0  0  0  0  0  0  0  0  0  0
    7.6939  -11.2939    0.0000 H   0  0  0  0  0  0  0  0  0  0  0  0
   11.5769  -13.4455    0.0000 H   0  0  0  0  0  0  0  0  0  0  0  0
    9.7089  -13.9242    0.0000 H   0  0  0  0  0  0  0  0  0  0  0  0
   11.9090  -10.1013    0.0000 H   0  0  0  0  0  0  0  0  0  0  0  0
   10.7637  -10.1788    0.0000 H   0  0  0  0  0  0  0  0  0  0  0  0
   15.3912  -11.2819    0.0000 H   0  0  0  0  0  0  0  0  0  0  0  0
   13.5743   -9.4248    0.0000 H   0  0  0  0  0  0  0  0  0  0  0  0
    5.8497  -11.4157    0.0000 H   0  0  0  0  0  0  0  0  0  0  0  0
    4.4773  -12.6234    0.0000 H   0  0  0  0  0  0  0  0  0  0  0  0
    7.5348  -15.8609    0.0000 H   0  0  0  0  0  0  0  0  0  0  0  0
    5.3513  -15.6457    0.0000 H   0  0  0  0  0  0  0  0  0  0  0  0
    8.9818  -16.4828    0.0000 H   0  0  0  0  0  0  0  0  0  0  0  0
   11.7144  -15.2449    0.0000 H   0  0  0  0  0  0  0  0  0  0  0  0
   12.3366  -10.7956    0.0000 H   0  0  0  0  0  0  0  0  0  0  0  0
    9.7511  -10.5408    0.0000 H   0  0  0  0  0  0  0  0  0  0  0  0
    6.9531  -11.6076    0.0000 H   0  0  0  0  0  0  0  0  0  0  0  0
    2.8857  -12.1140    0.0000 H   0  0  0  0  0  0  0  0  0  0  0  0
    0.9999  -12.7727    0.0000 H   0  0  0  0  0  0  0  0  0  0  0  0
    2.4115  -16.9514    0.0000 H   0  0  0  0  0  0  0  0  0  0  0  0
    1.0431  -16.3950    0.0000 H   0  0  0  0  0  0  0  0  0  0  0  0
    4.9954  -14.5685    0.0000 H   0  0  0  0  0  0  0  0  0  0  0  0
    3.7051  -13.8495    0.0000 H   0  0  0  0  0  0  0  0  0  0  0  0
    4.9339  -18.0406    0.0000 H   0  0  0  0  0  0  0  0  0  0  0  0
    3.2809  -17.3685    0.0000 H   0  0  0  0  0  0  0  0  0  0  0  0
    6.9041  -17.7113    0.0000 H   0  0  0  0  0  0  0  0  0  0  0  0
    7.4888  -16.0254    0.0000 H   0  0  0  0  0  0  0  0  0  0  0  0
    5.6849  -15.0201    0.0000 H   0  0  0  0  0  0  0  0  0  0  0  0
   -0.3215  -11.7496    0.0000 H   0  0  0  0  0  0  0  0  0  0  0  0
   -2.3188  -11.7236    0.0000 H   0  0  0  0  0  0  0  0  0  0  0  0
   -2.4215  -16.1331    0.0000 H   0  0  0  0  0  0  0  0  0  0  0  0
   -3.5171  -15.1423    0.0000 H   0  0  0  0  0  0  0  0  0  0  0  0
    0.8466  -14.9591    0.0000 H   0  0  0  0  0  0  0  0  0  0  0  0
   -0.1451  -13.6607    0.0000 H   0  0  0  0  0  0  0  0  0  0  0  0
   -0.4238  -18.0193    0.0000 H   0  0  0  0  0  0  0  0  0  0  0  0
   -1.7472  -16.8224    0.0000 H   0  0  0  0  0  0  0  0  0  0  0  0
    2.4620  -16.1723    0.0000 H   0  0  0  0  0  0  0  0  0  0  0  0
    3.3571  -20.2408    0.0000 H   0  0  0  0  0  0  0  0  0  0  0  0
    4.0570  -17.7388    0.0000 H   0  0  0  0  0  0  0  0  0  0  0  0
    0.8403  -20.8857    0.0000 H   0  0  0  0  0  0  0  0  0  0  0  0
   -0.9766  -19.0286    0.0000 H   0  0  0  0  0  0  0  0  0  0  0  0
   -3.2105  -10.3102    0.0000 H   0  0  0  0  0  0  0  0  0  0  0  0
   -5.0785   -9.6027    0.0000 H   0  0  0  0  0  0  0  0  0  0  0  0
   -6.5232  -13.8003    0.0000 H   0  0  0  0  0  0  0  0  0  0  0  0
   -7.2589  -11.8708    0.0000 H   0  0  0  0  0  0  0  0  0  0  0  0
   -3.2106  -13.7258    0.0000 H   0  0  0  0  0  0  0  0  0  0  0  0
   -3.6984  -12.1664    0.0000 H   0  0  0  0  0  0  0  0  0  0  0  0
   -5.4511  -16.1669    0.0000 H   0  0  0  0  0  0  0  0  0  0  0  0
   -6.3017  -14.7719    0.0000 H   0  0  0  0  0  0  0  0  0  0  0  0
   -2.1076  -15.4182    0.0000 H   0  0  0  0  0  0  0  0  0  0  0  0
   -2.6580  -19.5475    0.0000 H   0  0  0  0  0  0  0  0  0  0  0  0
   -1.1446  -17.4358    0.0000 H   0  0  0  0  0  0  0  0  0  0  0  0
   -5.2436  -19.2928    0.0000 H   0  0  0  0  0  0  0  0  0  0  0  0
   -6.3157  -16.9262    0.0000 H   0  0  0  0  0  0  0  0  0  0  0  0
   -5.4331   -7.9696    0.0000 H   0  0  0  0  0  0  0  0  0  0  0  0
   -6.9465   -6.6658    0.0000 H   0  0  0  0  0  0  0  0  0  0  0  0
   -9.8595   -9.9777    0.0000 H   0  0  0  0  0  0  0  0  0  0  0  0
   -9.9841   -8.3486    0.0000 H   0  0  0  0  0  0  0  0  0  0  0  0
   -6.5040  -11.0240    0.0000 H   0  0  0  0  0  0  0  0  0  0  0  0
   -6.5264   -9.5470    0.0000 H   0  0  0  0  0  0  0  0  0  0  0  0
   -9.6615  -12.5682    0.0000 H   0  0  0  0  0  0  0  0  0  0  0  0
   -9.7860  -10.9391    0.0000 H   0  0  0  0  0  0  0  0  0  0  0  0
   -6.6510  -14.0387    0.0000 H   0  0  0  0  0  0  0  0  0  0  0  0
   -6.5503  -11.8469    0.0000 H   0  0  0  0  0  0  0  0  0  0  0  0
   -7.4245  -15.4864    0.0000 H   0  0  0  0  0  0  0  0  0  0  0  0
   -9.3435  -15.2973    0.0000 H   0  0  0  0  0  0  0  0  0  0  0  0
   -9.5880  -13.5296    0.0000 H   0  0  0  0  0  0  0  0  0  0  0  0
   -6.7211   -5.0099    0.0000 H   0  0  0  0  0  0  0  0  0  0  0  0
   -7.6973   -3.2672    0.0000 H   0  0  0  0  0  0  0  0  0  0  0  0
  -11.5021   -5.5542    0.0000 H   0  0  0  0  0  0  0  0  0  0  0  0
  -10.9827   -3.6971    0.0000 H   0  0  0  0  0  0  0  0  0  0  0  0
  -10.6433   -8.9248    0.0000 H   0  0  0  0  0  0  0  0  0  0  0  0
  -12.2802   -7.0331    0.0000 H   0  0  0  0  0  0  0  0  0  0  0  0
   -6.9792   -1.9613    0.0000 H   0  0  0  0  0  0  0  0  0  0  0  0
   -8.6731   -1.8107    0.0000 H   0  0  0  0  0  0  0  0  0  0  0  0
   -9.9652   -2.4071    0.0000 H   0  0  0  0  0  0  0  0  0  0  0  0
  -10.3096   -2.8820    0.0000 H   0  0  0  0  0  0  0  0  0  0  0  0
  -11.3683   -3.1434    0.0000 H   0  0  0  0  0  0  0  0  0  0  0  0
  -11.5270   -3.1978    0.0000 H   0  0  0  0  0  0  0  0  0  0  0  0
  -12.8882   -3.6130    0.0000 H   0  0  0  0  0  0  0  0  0  0  0  0
  -13.3886   -3.6834    0.0000 H   0  0  0  0  0  0  0  0  0  0  0  0
  -14.6465   -3.7395    0.0000 H   0  0  0  0  0  0  0  0  0  0  0  0
  -15.1513   -3.7140    0.0000 H   0  0  0  0  0  0  0  0  0  0  0  0
  -16.3971   -3.5310    0.0000 H   0  0  0  0  0  0  0  0  0  0  0  0
  -16.8879   -3.4104    0.0000 H   0  0  0  0  0  0  0  0  0  0  0  0
  -18.2001   -2.8597    0.0000 H   0  0  0  0  0  0  0  0  0  0  0  0
  -19.1495   -2.5869    0.0000 H   0  0  0  0  0  0  0  0  0  0  0  0
   -6.6346   -1.6021    0.0000 H   0  0  0  0  0  0  0  0  0  0  0  0
   -5.7690   -0.2164    0.0000 H   0  0  0  0  0  0  0  0  0  0  0  0
   -6.8554    1.1991    0.0000 H   0  0  0  0  0  0  0  0  0  0  0  0
   -5.8018    1.8493    0.0000 H   0  0  0  0  0  0  0  0  0  0  0  0
   -5.7208    2.8668    0.0000 H   0  0  0  0  0  0  0  0  0  0  0  0
   -5.7159    5.9818    0.0000 H   0  0  0  0  0  0  0  0  0  0  0  0
   -2.6987    5.1910    0.0000 H   0  0  0  0  0  0  0  0  0  0  0  0
   -2.6656    3.9521    0.0000 H   0  0  0  0  0  0  0  0  0  0  0  0
   -3.3561    2.3067    0.0000 H   0  0  0  0  0  0  0  0  0  0  0  0
   -4.9887    2.3712    0.0000 H   0  0  0  0  0  0  0  0  0  0  0  0
   -5.2041    7.2801    0.0000 H   0  0  0  0  0  0  0  0  0  0  0  0
   -5.6197    8.1762    0.0000 H   0  0  0  0  0  0  0  0  0  0  0  0
   -5.6041   11.0216    0.0000 H   0  0  0  0  0  0  0  0  0  0  0  0
   -7.3430   10.6214    0.0000 H   0  0  0  0  0  0  0  0  0  0  0  0
   -3.9969   12.0510    0.0000 H   0  0  0  0  0  0  0  0  0  0  0  0
   -1.0282   10.6958    0.0000 H   0  0  0  0  0  0  0  0  0  0  0  0
   -1.3997    7.4536    0.0000 H   0  0  0  0  0  0  0  0  0  0  0  0
   -7.4967   11.8498    0.0000 H   0  0  0  0  0  0  0  0  0  0  0  0
   -8.3887   12.3463    0.0000 H   0  0  0  0  0  0  0  0  0  0  0  0
   -9.9736   14.9215    0.0000 H   0  0  0  0  0  0  0  0  0  0  0  0
  -11.2202   13.6447    0.0000 H   0  0  0  0  0  0  0  0  0  0  0  0
   -6.8968   14.2646    0.0000 H   0  0  0  0  0  0  0  0  0  0  0  0
   -7.6337   12.8063    0.0000 H   0  0  0  0  0  0  0  0  0  0  0  0
   -6.8428   17.7582    0.0000 H   0  0  0  0  0  0  0  0  0  0  0  0
   -5.6961   15.4269    0.0000 H   0  0  0  0  0  0  0  0  0  0  0  0
  -12.0136   14.5950    0.0000 H   0  0  0  0  0  0  0  0  0  0  0  0
  -13.0324   14.5305    0.0000 H   0  0  0  0  0  0  0  0  0  0  0  0
  -15.7580   15.8400    0.0000 H   0  0  0  0  0  0  0  0  0  0  0  0
  -16.1163   14.0919    0.0000 H   0  0  0  0  0  0  0  0  0  0  0  0
  -12.8145   16.9508    0.0000 H   0  0  0  0  0  0  0  0  0  0  0  0
  -12.6460   15.3256    0.0000 H   0  0  0  0  0  0  0  0  0  0  0  0
  -14.6578   19.9191    0.0000 H   0  0  0  0  0  0  0  0  0  0  0  0
  -12.4327   18.5778    0.0000 H   0  0  0  0  0  0  0  0  0  0  0  0
  -17.4742   14.4138    0.0000 H   0  0  0  0  0  0  0  0  0  0  0  0
  -18.3021   13.8749    0.0000 H   0  0  0  0  0  0  0  0  0  0  0  0
  -21.1207   13.4854    0.0000 H   0  0  0  0  0  0  0  0  0  0  0  0
  -20.4771   11.8211    0.0000 H   0  0  0  0  0  0  0  0  0  0  0  0
  -21.6711   11.4942    0.0000 H   0  0  0  0  0  0  0  0  0  0  0  0
  -22.0356   10.5406    0.0000 H   0  0  0  0  0  0  0  0  0  0  0  0
  -22.9179    7.5532    0.0000 H   0  0  0  0  0  0  0  0  0  0  0  0
  -25.2831   10.3799    0.0000 H   0  0  0  0  0  0  0  0  0  0  0  0
  -24.1467   11.7443    0.0000 H   0  0  0  0  0  0  0  0  0  0  0  0
  -22.5984   11.2225    0.0000 H   0  0  0  0  0  0  0  0  0  0  0  0
  -25.3661    7.3852    0.0000 H   0  0  0  0  0  0  0  0  0  0  0  0
  -23.4470    7.1961    0.0000 H   0  0  0  0  0  0  0  0  0  0  0  0
  -26.8794    8.6890    0.0000 H   0  0  0  0  0  0  0  0  0  0  0  0
  -26.3599   10.5460    0.0000 H   0  0  0  0  0  0  0  0  0  0  0  0
  -24.7265   10.5852    0.0000 H   0  0  0  0  0  0  0  0  0  0  0  0
  -23.7747    6.4517    0.0000 H   0  0  0  0  0  0  0  0  0  0  0  0
  -23.0106    2.2160    0.0000 H   0  0  0  0  0  0  0  0  0  0  0  0
  -23.5064    3.3734    0.0000 H   0  0  0  0  0  0  0  0  0  0  0  0
  -22.3790    0.7560    0.0000 H   0  0  0  0  0  0  0  0  0  0  0  0
  -22.9341    1.6947    0.0000 H   0  0  0  0  0  0  0  0  0  0  0  0
  -21.1639   -0.7356    0.0000 H   0  0  0  0  0  0  0  0  0  0  0  0
  -22.1070    0.3300    0.0000 H   0  0  0  0  0  0  0  0  0  0  0  0
  -20.6005   -1.5470    0.0000 H   0  0  0  0  0  0  0  0  0  0  0  0
  -25.0427    4.9751    0.0000 H   0  0  0  0  0  0  0  0  0  0  0  0
  -24.6603    6.5635    0.0000 H   0  0  0  0  0  0  0  0  0  0  0  0
  -22.8890    6.7799    0.0000 H   0  0  0  0  0  0  0  0  0  0  0  0
  -25.2301    5.9383    0.0000 H   0  0  0  0  0  0  0  0  0  0  0  0
  -24.9622    2.5576    0.0000 H   0  0  0  0  0  0  0  0  0  0  0  0
  -27.2107    0.8572    0.0000 H   0  0  0  0  0  0  0  0  0  0  0  0
  -25.4940    1.7356    0.0000 H   0  0  0  0  0  0  0  0  0  0  0  0
  -28.8194    1.7685    0.0000 H   0  0  0  0  0  0  0  0  0  0  0  0
  -29.2061    5.1007    0.0000 H   0  0  0  0  0  0  0  0  0  0  0  0
  -31.6352    6.2711    0.0000 H   0  0  0  0  0  0  0  0  0  0  0  0
  -29.9233    5.7672    0.0000 H   0  0  0  0  0  0  0  0  0  0  0  0
  -32.3942    2.9298    0.0000 H   0  0  0  0  0  0  0  0  0  0  0  0
  -35.1290    5.1795    0.0000 H   0  0  0  0  0  0  0  0  0  0  0  0
  -34.3355    6.7778    0.0000 H   0  0  0  0  0  0  0  0  0  0  0  0
  -32.5751    6.4863    0.0000 H   0  0  0  0  0  0  0  0  0  0  0  0
  -35.1924    3.9275    0.0000 H   0  0  0  0  0  0  0  0  0  0  0  0
  -34.5646    2.2571    0.0000 H   0  0  0  0  0  0  0  0  0  0  0  0
  -32.6510    2.4955    0.0000 H   0  0  0  0  0  0  0  0  0  0  0  0
  1  2  1  0
  2  3  1  0
  3  4  2  0
  4  5  1  0
  5  6  2  0
  6  7  1  0
  7  8  2  0
  7  9  1  0
  9 10  1  0
 10 11  1  0
 11 12  2  0
  9 13  1  0
 13 14  1  0
 14 15  2  0
 15 16  1  0
 16 17  2  0
 17 18  1  0
 16 19  1  0
 14 20  1  0
 20 21  1  0
 21 22  2  0
 22 23  1  0
 23 24  2  0
 24 25  1  0
 25 26  2  0
 25 27  1  0
  1 28  2  0
  1 29  1  0
 29 30  1  0
 30 31  1  0
 31 32  1  0
 32 33  2  0
 32 34  1  0
 34 35  1  0
 35 36  1  0
 36 37  1  0
 37 38  1  0
 38 39  1  0
 39 40  1  0
 35 41  1  0
 41 42  2  0
 41 43  1  0
 43 44  1  0
 44 45  1  0
 44 46  1  0
 46 47  2  0
 46 48  1  0
 48 49  1  0
 49 50  1  0
 50 51  1  0
 50 52  1  0
 49 53  1  0
 53 54  2  0
 53 55  1  0
 55 56  1  0
 56 57  1  0
 57 58  1  0
 58 59  1  0
 59 60  2  0
 59 61  1  0
 56 62  1  0
 62 63  2  0
 62 64  1  0
 64 65  1  0
 65 66  1  0
 66 67  1  0
 67 68  2  0
 68 69  1  0
 69 70  2  0
 70 71  1  0
 70 72  1  0
 72 73  2  0
 65 74  1  0
 74 75  2  0
 74 76  1  0
 76 77  1  0
 77 78  1  0
 78 79  1  0
 78 80  1  0
 80 81  1  0
 77 82  1  0
 82 83  2  0
 82 84  1  0
 84 85  1  0
 85 86  1  0
 86 87  1  0
 87 88  1  0
 88 89  1  0
 88 90  2  0
 85 91  1  0
 91 92  2  0
 91 93  1  0
 93 94  1  0
 94 95  1  0
 95 96  1  0
 96 97  2  0
 97 98  1  0
 98 99  2  0
 99100  1  0
 99101  1  0
101102  2  0
 94103  1  0
103104  2  0
103105  1  0
105106  1  0
106107  1  0
107108  1  0
108109  1  0
109110  1  0
106111  1  0
111112  2  0
111113  1  0
113114  1  0
114115  1  0
115116  1  0
116117  1  0
117118  1  0
118119  1  0
119120  2  3
119121  1  0
114122  1  0
122123  2  0
122124  1  0
124125  1  0
125126  1  0
126127  1  0
127128  1  0
128129  1  0
129130  1  0
130131  2  3
130132  1  0
125133  1  0
133134  2  0
133135  1  0
135136  1  0
136137  1  0
137138  1  0
138139  1  0
139140  1  0
140141  1  0
136142  1  0
142143  2  0
142144  1  0
144145  1  0
145146  1  0
146147  1  0
147148  1  0
147149  2  0
145150  1  0
150151  2  0
150152  1  0
153152  1  6
153154  1  0
154155  1  0
155156  1  0
156157  1  0
157158  1  0
158159  1  0
159160  1  0
153161  1  0
153162  1  0
162163  2  0
162164  1  0
164165  1  0
165166  1  0
166167  1  0
166168  1  0
165169  1  0
169170  2  0
169171  1  0
171172  1  0
172173  1  0
173174  1  0
174175  2  0
175176  1  0
176177  1  0
177178  2  0
172179  1  0
179180  2  0
179181  1  0
181182  1  0
182183  1  0
183184  1  0
184185  1  0
185186  1  0
185187  2  0
182188  1  0
188189  2  0
188190  1  0
190191  1  0
191192  1  0
192193  1  0
193194  1  0
194195  1  0
194196  2  0
191197  1  0
197198  2  0
197199  1  0
199200  1  0
200201  1  0
201202  1  0
202203  2  0
202204  1  0
200205  1  0
205206  2  0
205207  1  0
207208  1  0
208209  1  0
209210  1  0
209211  1  0
211212  1  0
208213  1  0
213214  2  0
213215  1  0
215216  1  0
216217  1  0
217218  1  0
218219  1  0
219220  1  0
216221  1  0
216222  1  1
222223  2  0
222224  1  0
224225  1  0
225226  1  0
226227  1  0
227228  2  0
227229  1  0
225230  1  0
230231  2  0
230232  1  0
232233  1  0
233234  1  0
234235  1  0
235236  1  0
235237  1  0
233238  1  0
238239  2  0
238240  1  0
  8  3  1  0
 73 67  1  0
102 96  1  0
178174  1  0
 11  6  1  0
 18 13  2  0
160220  2  0
 22  9  1  0
 26 21  1  0
  2241  1  0
  4242  1  0
  5243  1  0
  8244  1  0
 15245  1  0
 17246  1  0
 18247  1  0
 19248  1  0
 23249  1  0
 24250  1  0
 26251  1  0
 27252  1  0
 29253  1  0
 30254  1  0
 30255  1  0
 31256  1  0
 31257  1  0
 34258  1  0
 35259  1  1
 36260  1  0
 36261  1  0
 37262  1  0
 37263  1  0
 38264  1  0
 38265  1  0
 39266  1  0
 39267  1  0
 40268  1  0
 40269  1  0
 40270  1  0
 43271  1  0
 44272  1  1
 45273  1  0
 45274  1  0
 45275  1  0
 48276  1  0
 49277  1  1
 50278  1  6
 51279  1  0
 52280  1  0
 52281  1  0
 52282  1  0
 55283  1  0
 56284  1  1
 57285  1  0
 57286  1  0
 58287  1  0
 58288  1  0
 64289  1  0
 65290  1  6
 66291  1  0
 66292  1  0
 68293  1  0
 69294  1  0
 71295  1  0
 72296  1  0
 73297  1  0
 76298  1  0
 77299  1  6
 78300  1  1
 79301  1  0
 79302  1  0
 79303  1  0
 80304  1  0
 80305  1  0
 81306  1  0
 81307  1  0
 81308  1  0
 84309  1  0
 85310  1  1
 86311  1  0
 86312  1  0
 87313  1  0
 87314  1  0
 89315  1  0
 89316  1  0
 93317  1  0
 94318  1  1
 95319  1  0
 95320  1  0
 97321  1  0
 98322  1  0
100323  1  0
101324  1  0
102325  1  0
105326  1  0
106327  1  6
107328  1  0
107329  1  0
108330  1  0
108331  1  0
109332  1  0
109333  1  0
110334  1  0
110335  1  0
110336  1  0
113337  1  0
114338  1  1
115339  1  0
115340  1  0
116341  1  0
116342  1  0
117343  1  0
117344  1  0
118345  1  0
120346  1  0
120347  1  0
121348  1  0
121349  1  0
124350  1  0
125351  1  1
126352  1  0
126353  1  0
127354  1  0
127355  1  0
128356  1  0
128357  1  0
129358  1  0
131359  1  0
131360  1  0
132361  1  0
132362  1  0
135363  1  0
136364  1  1
137365  1  0
137366  1  0
138367  1  0
138368  1  0
139369  1  0
139370  1  0
140371  1  0
140372  1  0
141373  1  0
141374  1  0
141375  1  0
144376  1  0
145377  1  1
146378  1  0
146379  1  0
148380  1  0
148381  1  0
152382  1  0
154383  1  0
154384  1  0
155385  1  0
155386  1  0
156387  1  0
156388  1  0
157389  1  0
157390  1  0
158391  1  0
158392  1  0
159393  1  0
159394  1  0
160395  1  0
161396  1  0
161397  1  0
161398  1  0
164399  1  0
165400  1  6
166401  1  1
167402  1  0
168403  1  0
168404  1  0
168405  1  0
171406  1  0
172407  1  6
173408  1  0
173409  1  0
175410  1  0
176411  1  0
177412  1  0
181413  1  0
182414  1  6
183415  1  0
183416  1  0
184417  1  0
184418  1  0
186419  1  0
186420  1  0
190421  1  0
191422  1  6
192423  1  0
192424  1  0
193425  1  0
193426  1  0
195427  1  0
195428  1  0
199429  1  0
200430  1  6
201431  1  0
201432  1  0
207433  1  0
208434  1  6
209435  1  1
210436  1  0
210437  1  0
210438  1  0
211439  1  0
211440  1  0
212441  1  0
212442  1  0
212443  1  0
215444  1  0
217445  1  0
217446  1  0
218447  1  0
218448  1  0
219449  1  0
219450  1  0
220451  1  0
221452  1  0
221453  1  0
221454  1  0
224455  1  0
225456  1  1
226457  1  0
226458  1  0
232459  1  0
233460  1  6
234461  1  0
234462  1  0
235463  1  0
236464  1  0
236465  1  0
236466  1  0
237467  1  0
237468  1  0
237469  1  0
M  CHG  8  40   1  61  -1 120   1 131   1 141   1 204  -1 229  -1 240  -1
M  END
