
     RDKit          2D

320327  0  0  0  0  0  0  0  0999 V2000
   27.8043   -2.6432    0.0000 C   0  0  0  0  0  0  0  0  0  0  0  0
   29.1116   -1.9078    0.0000 N   0  0  0  0  0  0  0  0  0  0  0  0
   30.4022   -2.6723    0.0000 C   0  0  0  0  0  0  0  0  0  0  0  0
   30.3854   -4.1723    0.0000 C   0  0  0  0  0  0  0  0  0  0  0  0
   31.6759   -4.9368    0.0000 C   0  0  0  0  0  0  0  0  0  0  0  0
   32.9833   -4.2014    0.0000 C   0  0  0  0  0  0  0  0  0  0  0  0
   33.0001   -2.7014    0.0000 C   0  0  0  0  0  0  0  0  0  0  0  0
   31.7095   -1.9369    0.0000 C   0  0  0  0  0  0  0  0  0  0  0  0
   34.4318   -2.2539    0.0000 C   0  0  0  0  0  0  0  0  0  0  0  0
   35.2998   -3.4773    0.0000 O   0  0  0  0  0  0  0  0  0  0  0  0
   34.4046   -4.6808    0.0000 C   0  0  0  0  0  0  0  0  0  0  0  0
   34.8521   -6.1125    0.0000 O   0  0  0  0  0  0  0  0  0  0  0  0
   35.9024   -1.9585    0.0000 C   0  0  0  0  0  0  0  0  0  0  0  0
   36.3819   -0.5372    0.0000 C   0  0  0  0  0  0  0  0  0  0  0  0
   37.8525   -0.2418    0.0000 C   0  0  0  0  0  0  0  0  0  0  0  0
   38.8436   -1.3677    0.0000 C   0  0  0  0  0  0  0  0  0  0  0  0
   38.3642   -2.7890    0.0000 C   0  0  0  0  0  0  0  0  0  0  0  0
   36.8935   -3.0844    0.0000 C   0  0  0  0  0  0  0  0  0  0  0  0
   40.3143   -1.0723    0.0000 O   0  0  0  0  0  0  0  0  0  0  0  0
   35.3907    0.5887    0.0000 O   0  0  0  0  0  0  0  0  0  0  0  0
   33.9201    0.2933    0.0000 C   0  0  0  0  0  0  0  0  0  0  0  0
   33.4406   -1.1280    0.0000 C   0  0  0  0  0  0  0  0  0  0  0  0
   32.1938   -0.7602    0.0000 C   0  0  0  0  0  0  0  0  0  0  0  0
   31.6651   -0.1597    0.0000 C   0  0  0  0  0  0  0  0  0  0  0  0
   31.9209    0.5983    0.0000 C   0  0  0  0  0  0  0  0  0  0  0  0
   32.7052    0.7559    0.0000 C   0  0  0  0  0  0  0  0  0  0  0  0
   30.4672    2.2496    0.0000 O   0  0  0  0  0  0  0  0  0  0  0  0
   27.7875   -4.1432    0.0000 S   0  0  0  0  0  0  0  0  0  0  0  0
   26.5137   -1.8787    0.0000 N   0  0  0  0  0  0  0  0  0  0  0  0
   25.2063   -2.6141    0.0000 C   0  0  0  0  0  0  0  0  0  0  0  0
   23.9158   -1.8496    0.0000 C   0  0  0  0  0  0  0  0  0  0  0  0
   22.6084   -2.5850    0.0000 O   0  0  0  0  0  0  0  0  0  0  0  0
   21.3179   -1.8205    0.0000 C   0  0  0  0  0  0  0  0  0  0  0  0
   20.0105   -2.5559    0.0000 O   0  0  0  0  0  0  0  0  0  0  0  0
   18.7200   -1.7914    0.0000 C   0  0  0  0  0  0  0  0  0  0  0  0
   17.4126   -2.5268    0.0000 C   0  0  0  0  0  0  0  0  0  0  0  0
   16.1221   -1.7623    0.0000 O   0  0  0  0  0  0  0  0  0  0  0  0
   14.8147   -2.4977    0.0000 C   0  0  0  0  0  0  0  0  0  0  0  0
   13.5241   -1.7332    0.0000 C   0  0  0  0  0  0  0  0  0  0  0  0
   12.2168   -2.4686    0.0000 C   0  0  0  0  0  0  0  0  0  0  0  0
   12.4010   -3.2442    0.0000 O   0  0  0  0  0  0  0  0  0  0  0  0
   10.9262   -1.7041    0.0000 N   0  0  0  0  0  0  0  0  0  0  0  0
    9.6189   -2.4395    0.0000 C   0  0  0  0  0  0  0  0  0  0  0  0
   10.5701   -3.5993    0.0000 C   0  0  0  0  0  0  0  0  0  0  0  0
   12.0502   -3.3554    0.0000 C   0  0  0  0  0  0  0  0  0  0  0  0
   13.0014   -4.5152    0.0000 N   0  0  0  0  0  0  0  0  0  0  0  0
   12.9029   -2.1214    0.0000 O   0  0  0  0  0  0  0  0  0  0  0  0
    8.1388   -2.6835    0.0000 C   0  0  0  0  0  0  0  0  0  0  0  0
    7.9654   -4.1734    0.0000 O   0  0  0  0  0  0  0  0  0  0  0  0
    7.1876   -1.5237    0.0000 N   0  0  0  0  0  0  0  0  0  0  0  0
    5.7075   -1.7676    0.0000 C   0  0  0  0  0  0  0  0  0  0  0  0
    6.2048   -3.1828    0.0000 C   0  0  0  0  0  0  0  0  0  0  0  0
    7.6790   -3.4598    0.0000 C   0  0  0  0  0  0  0  0  0  0  0  0
    8.1762   -4.8750    0.0000 C   0  0  0  0  0  0  0  0  0  0  0  0
    9.6056   -5.3296    0.0000 N   0  0  0  0  0  0  0  0  0  0  0  0
    7.1992   -6.0132    0.0000 O   0  0  0  0  0  0  0  0  0  0  0  0
    4.2333   -1.4906    0.0000 C   0  0  0  0  0  0  0  0  0  0  0  0
    3.5608   -2.8313    0.0000 O   0  0  0  0  0  0  0  0  0  0  0  0
    3.7361   -0.0754    0.0000 N   0  0  0  0  0  0  0  0  0  0  0  0
    2.2619    0.2016    0.0000 C   0  0  0  0  0  0  0  0  0  0  0  0
    2.2451   -1.2983    0.0000 C   0  0  0  0  0  0  0  0  0  0  0  0
    3.5357   -2.0628    0.0000 C   0  0  0  0  0  0  0  0  0  0  0  0
    3.5189   -3.5627    0.0000 C   0  0  0  0  0  0  0  0  0  0  0  0
    5.0099   -2.3398    0.0000 C   0  0  0  0  0  0  0  0  0  0  0  0
    0.9714    0.9661    0.0000 C   0  0  0  0  0  0  0  0  0  0  0  0
   -0.1192   -0.0638    0.0000 O   0  0  0  0  0  0  0  0  0  0  0  0
    0.9882    2.4660    0.0000 N   0  0  0  0  0  0  0  0  0  0  0  0
   -0.3024    3.2305    0.0000 C   0  0  0  0  0  0  0  0  0  0  0  0
   -0.4143    1.7347    0.0000 C   0  0  0  0  0  0  0  0  0  0  0  0
   -0.8072    0.2871    0.0000 C   0  0  0  0  0  0  0  0  0  0  0  0
   -1.4671   -1.0600    0.0000 C   0  0  0  0  0  0  0  0  0  0  0  0
   -2.3699   -2.2578    0.0000 C   0  0  0  0  0  0  0  0  0  0  0  0
   -3.4831   -3.2632    0.0000 C   0  0  0  0  0  0  0  0  0  0  0  0
   -4.7665   -4.0397    0.0000 C   0  0  0  0  0  0  0  0  0  0  0  0
   -6.1736   -4.5593    0.0000 C   0  0  0  0  0  0  0  0  0  0  0  0
    0.9557    4.0474    0.0000 C   0  0  0  0  0  0  0  0  0  0  0  0
   -0.4756    4.7205    0.0000 C   0  0  0  0  0  0  0  0  0  0  0  0
    0.9419    5.2110    0.0000 O   0  0  0  0  0  0  0  0  0  0  0  0
   -0.9276    6.1508    0.0000 N   0  0  0  0  0  0  0  0  0  0  0  0
   -1.6422    7.4696    0.0000 C   0  0  0  0  0  0  0  0  0  0  0  0
   -1.0255    8.8370    0.0000 C   0  0  0  0  0  0  0  0  0  0  0  0
    0.4671    8.9865    0.0000 C   0  0  0  0  0  0  0  0  0  0  0  0
    1.0838   10.3539    0.0000 C   0  0  0  0  0  0  0  0  0  0  0  0
    2.5763   10.5034    0.0000 N   0  0  0  0  0  0  0  0  0  0  0  0
    3.1931   11.8707    0.0000 C   0  0  0  0  0  0  0  0  0  0  0  0
    4.6856   12.0203    0.0000 N   0  0  0  0  0  0  0  0  0  0  0  0
    2.3173   13.0885    0.0000 N   0  0  0  0  0  0  0  0  0  0  0  0
   -2.5935    8.6294    0.0000 C   0  0  0  0  0  0  0  0  0  0  0  0
   -1.6661    9.8084    0.0000 O   0  0  0  0  0  0  0  0  0  0  0  0
   -3.7470    9.5882    0.0000 N   0  0  0  0  0  0  0  0  0  0  0  0
   -5.0612   10.3114    0.0000 C   0  0  0  0  0  0  0  0  0  0  0  0
   -5.2816   11.7951    0.0000 C   0  0  0  0  0  0  0  0  0  0  0  0
   -4.1068   12.7279    0.0000 O   0  0  0  0  0  0  0  0  0  0  0  0
   -6.4885   10.7728    0.0000 C   0  0  0  0  0  0  0  0  0  0  0  0
   -6.3458   12.2660    0.0000 O   0  0  0  0  0  0  0  0  0  0  0  0
   -7.9773   10.9557    0.0000 N   0  0  0  0  0  0  0  0  0  0  0  0
   -9.4738   10.8536    0.0000 C   0  0  0  0  0  0  0  0  0  0  0  0
  -10.4613   11.9827    0.0000 C   0  0  0  0  0  0  0  0  0  0  0  0
   -9.9774   13.4024    0.0000 C   0  0  0  0  0  0  0  0  0  0  0  0
   -8.5058   13.6932    0.0000 C   0  0  0  0  0  0  0  0  0  0  0  0
   -8.0218   15.1129    0.0000 C   0  0  0  0  0  0  0  0  0  0  0  0
   -9.0094   16.2420    0.0000 C   0  0  0  0  0  0  0  0  0  0  0  0
  -10.4810   15.9512    0.0000 C   0  0  0  0  0  0  0  0  0  0  0  0
  -10.9649   14.5315    0.0000 C   0  0  0  0  0  0  0  0  0  0  0  0
  -10.9239   10.4701    0.0000 C   0  0  0  0  0  0  0  0  0  0  0  0
  -11.6112   11.8034    0.0000 O   0  0  0  0  0  0  0  0  0  0  0  0
  -12.2753    9.8191    0.0000 N   0  0  0  0  0  0  0  0  0  0  0  0
  -13.4790    8.9241    0.0000 C   0  0  0  0  0  0  0  0  0  0  0  0
  -14.9202    9.3400    0.0000 C   0  0  0  0  0  0  0  0  0  0  0  0
  -15.2807   10.7961    0.0000 C   0  0  0  0  0  0  0  0  0  0  0  0
  -14.1999   11.8362    0.0000 C   0  0  0  0  0  0  0  0  0  0  0  0
  -14.5603   13.2923    0.0000 C   0  0  0  0  0  0  0  0  0  0  0  0
  -16.0015   13.7082    0.0000 C   0  0  0  0  0  0  0  0  0  0  0  0
  -17.0823   12.6680    0.0000 C   0  0  0  0  0  0  0  0  0  0  0  0
  -16.7219   11.2120    0.0000 C   0  0  0  0  0  0  0  0  0  0  0  0
  -14.4917    7.8175    0.0000 C   0  0  0  0  0  0  0  0  0  0  0  0
  -15.7906    8.5676    0.0000 O   0  0  0  0  0  0  0  0  0  0  0  0
  -15.2765    6.5393    0.0000 N   0  0  0  0  0  0  0  0  0  0  0  0
  -15.8053    5.1355    0.0000 C   0  0  0  0  0  0  0  0  0  0  0  0
  -17.2426    4.7062    0.0000 C   0  0  0  0  0  0  0  0  0  0  0  0
  -16.0589    3.6571    0.0000 C   0  0  0  0  0  0  0  0  0  0  0  0
  -17.5572    3.5859    0.0000 O   0  0  0  0  0  0  0  0  0  0  0  0
  -16.0281    2.1575    0.0000 N   0  0  0  0  0  0  0  0  0  0  0  0
  -15.7140    0.6907    0.0000 C   0  0  0  0  0  0  0  0  0  0  0  0
  -16.6910   -0.4475    0.0000 C   0  0  0  0  0  0  0  0  0  0  0  0
  -18.1652   -0.1705    0.0000 C   0  0  0  0  0  0  0  0  0  0  0  0
  -19.1422   -1.3087    0.0000 C   0  0  0  0  0  0  0  0  0  0  0  0
  -19.4558    0.5940    0.0000 C   0  0  0  0  0  0  0  0  0  0  0  0
  -15.1281   -0.6901    0.0000 C   0  0  0  0  0  0  0  0  0  0  0  0
  -16.3500   -1.5601    0.0000 O   0  0  0  0  0  0  0  0  0  0  0  0
  -14.2914   -1.9351    0.0000 N   0  0  0  0  0  0  0  0  0  0  0  0
  -13.2342   -2.9992    0.0000 C   0  0  0  0  0  0  0  0  0  0  0  0
  -11.9947   -3.8440    0.0000 C   0  0  0  0  0  0  0  0  0  0  0  0
  -10.6178   -4.4390    0.0000 C   0  0  0  0  0  0  0  0  0  0  0  0
   -9.1531   -4.7626    0.0000 C   0  0  0  0  0  0  0  0  0  0  0  0
   -7.6536   -4.8032    0.0000 C   0  0  0  0  0  0  0  0  0  0  0  0
  -14.6571   -3.4739    0.0000 C   0  0  0  0  0  0  0  0  0  0  0  0
  -13.4407   -4.4849    0.0000 C   0  0  0  0  0  0  0  0  0  0  0  0
  -12.5155   -5.6656    0.0000 O   0  0  0  0  0  0  0  0  0  0  0  0
  -14.8307   -5.0489    0.0000 N   0  0  0  0  0  0  0  0  0  0  0  0
  -15.0372   -6.5346    0.0000 C   0  0  0  0  0  0  0  0  0  0  0  0
  -14.7232   -8.0014    0.0000 C   0  0  0  0  0  0  0  0  0  0  0  0
  -15.8364   -9.0067    0.0000 C   0  0  0  0  0  0  0  0  0  0  0  0
  -15.5223  -10.4735    0.0000 O   0  0  0  0  0  0  0  0  0  0  0  0
  -17.3329   -8.9044    0.0000 O   0  0  0  0  0  0  0  0  0  0  0  0
  -16.4271   -7.0986    0.0000 C   0  0  0  0  0  0  0  0  0  0  0  0
  -17.6105   -6.1769    0.0000 O   0  0  0  0  0  0  0  0  0  0  0  0
  -16.6337   -8.5843    0.0000 N   0  0  0  0  0  0  0  0  0  0  0  0
  -18.0236   -9.1483    0.0000 C   0  0  0  0  0  0  0  0  0  0  0  0
  -19.5226   -9.2029    0.0000 C   0  0  0  0  0  0  0  0  0  0  0  0
  -20.2249  -10.5283    0.0000 C   0  0  0  0  0  0  0  0  0  0  0  0
  -21.7239  -10.5829    0.0000 C   0  0  0  0  0  0  0  0  0  0  0  0
  -22.5824  -11.8129    0.0000 N   0  0  0  0  0  0  0  0  0  0  0  0
  -22.5206   -9.3120    0.0000 O   0  0  0  0  0  0  0  0  0  0  0  0
  -18.2302  -10.6340    0.0000 C   0  0  0  0  0  0  0  0  0  0  0  0
  -17.0468  -11.5557    0.0000 O   0  0  0  0  0  0  0  0  0  0  0  0
  -19.6201  -11.1980    0.0000 N   0  0  0  0  0  0  0  0  0  0  0  0
  -19.8266  -12.6837    0.0000 C   0  0  0  0  0  0  0  0  0  0  0  0
  -19.5126  -14.1505    0.0000 C   0  0  0  0  0  0  0  0  0  0  0  0
  -20.6258  -15.1558    0.0000 C   0  0  0  0  0  0  0  0  0  0  0  0
  -18.7158  -15.4213    0.0000 C   0  0  0  0  0  0  0  0  0  0  0  0
  -17.2168  -15.3668    0.0000 C   0  0  0  0  0  0  0  0  0  0  0  0
  -21.2166  -13.2477    0.0000 C   0  0  0  0  0  0  0  0  0  0  0  0
  -21.6027  -14.6971    0.0000 O   0  0  0  0  0  0  0  0  0  0  0  0
  -22.5035  -12.4771    0.0000 O   0  0  0  0  0  0  0  0  0  0  0  0
   28.9455   -0.4171    0.0000 H   0  0  0  0  0  0  0  0  0  0  0  0
   29.0780   -4.9077    0.0000 H   0  0  0  0  0  0  0  0  0  0  0  0
   31.6591   -6.4367    0.0000 H   0  0  0  0  0  0  0  0  0  0  0  0
   31.3629   -0.4775    0.0000 H   0  0  0  0  0  0  0  0  0  0  0  0
   38.3320    1.1795    0.0000 H   0  0  0  0  0  0  0  0  0  0  0  0
   39.3553   -3.9149    0.0000 H   0  0  0  0  0  0  0  0  0  0  0  0
   36.4141   -4.5057    0.0000 H   0  0  0  0  0  0  0  0  0  0  0  0
   41.3054   -2.1982    0.0000 H   0  0  0  0  0  0  0  0  0  0  0  0
   31.4905   -2.8448    0.0000 H   0  0  0  0  0  0  0  0  0  0  0  0
   29.4832   -0.4115    0.0000 H   0  0  0  0  0  0  0  0  0  0  0  0
   33.4084    2.8405    0.0000 H   0  0  0  0  0  0  0  0  0  0  0  0
   30.9467    3.6709    0.0000 H   0  0  0  0  0  0  0  0  0  0  0  0
   26.5305   -0.3788    0.0000 H   0  0  0  0  0  0  0  0  0  0  0  0
   26.1576   -3.7739    0.0000 H   0  0  0  0  0  0  0  0  0  0  0  0
   24.2294   -3.7523    0.0000 H   0  0  0  0  0  0  0  0  0  0  0  0
   24.8928   -0.7114    0.0000 H   0  0  0  0  0  0  0  0  0  0  0  0
   23.1130   -0.5825    0.0000 H   0  0  0  0  0  0  0  0  0  0  0  0
   22.1488   -0.5717    0.0000 H   0  0  0  0  0  0  0  0  0  0  0  0
   20.5151   -0.5534    0.0000 H   0  0  0  0  0  0  0  0  0  0  0  0
   19.5509   -0.5426    0.0000 H   0  0  0  0  0  0  0  0  0  0  0  0
   17.7687   -0.6316    0.0000 H   0  0  0  0  0  0  0  0  0  0  0  0
   18.3639   -3.6866    0.0000 H   0  0  0  0  0  0  0  0  0  0  0  0
   16.5816   -3.7756    0.0000 H   0  0  0  0  0  0  0  0  0  0  0  0
   15.6175   -3.7648    0.0000 H   0  0  0  0  0  0  0  0  0  0  0  0
   13.9837   -3.7465    0.0000 H   0  0  0  0  0  0  0  0  0  0  0  0
   14.5011   -0.5950    0.0000 H   0  0  0  0  0  0  0  0  0  0  0  0
   12.5729   -0.5734    0.0000 H   0  0  0  0  0  0  0  0  0  0  0  0
   10.9430   -0.2042    0.0000 H   0  0  0  0  0  0  0  0  0  0  0  0
    9.1217   -1.0243    0.0000 H   0  0  0  0  0  0  0  0  0  0  0  0
   11.0673   -5.0145    0.0000 H   0  0  0  0  0  0  0  0  0  0  0  0
    9.3622   -4.4886    0.0000 H   0  0  0  0  0  0  0  0  0  0  0  0
   14.5001   -4.4535    0.0000 H   0  0  0  0  0  0  0  0  0  0  0  0
   12.4726   -5.9189    0.0000 H   0  0  0  0  0  0  0  0  0  0  0  0
    7.7164   -0.1200    0.0000 H   0  0  0  0  0  0  0  0  0  0  0  0
    5.9071   -0.2809    0.0000 H   0  0  0  0  0  0  0  0  0  0  0  0
    6.1880   -4.6827    0.0000 H   0  0  0  0  0  0  0  0  0  0  0  0
    4.8277   -3.7776    0.0000 H   0  0  0  0  0  0  0  0  0  0  0  0
    9.1590   -3.2159    0.0000 H   0  0  0  0  0  0  0  0  0  0  0  0
    8.0582   -2.0085    0.0000 H   0  0  0  0  0  0  0  0  0  0  0  0
   10.1476   -6.5672    0.0000 H   0  0  0  0  0  0  0  0  0  0  0  0
   10.9154   -4.3001    0.0000 H   0  0  0  0  0  0  0  0  0  0  0  0
    4.7131    1.0628    0.0000 H   0  0  0  0  0  0  0  0  0  0  0  0
    2.7907    1.6053    0.0000 H   0  0  0  0  0  0  0  0  0  0  0  0
    1.5492   -2.6271    0.0000 H   0  0  0  0  0  0  0  0  0  0  0  0
    0.7709   -1.0213    0.0000 H   0  0  0  0  0  0  0  0  0  0  0  0
    4.3884   -0.8287    0.0000 H   0  0  0  0  0  0  0  0  0  0  0  0
    4.5861   -4.6168    0.0000 H   0  0  0  0  0  0  0  0  0  0  0  0
    2.9901   -4.9664    0.0000 H   0  0  0  0  0  0  0  0  0  0  0  0
    2.0219   -3.4674    0.0000 H   0  0  0  0  0  0  0  0  0  0  0  0
    5.5071   -3.7550    0.0000 H   0  0  0  0  0  0  0  0  0  0  0  0
    6.5050   -2.4612    0.0000 H   0  0  0  0  0  0  0  0  0  0  0  0
    4.8437   -0.8490    0.0000 H   0  0  0  0  0  0  0  0  0  0  0  0
    2.3754    3.0366    0.0000 H   0  0  0  0  0  0  0  0  0  0  0  0
    1.0708    1.9456    0.0000 H   0  0  0  0  0  0  0  0  0  0  0  0
    0.5786    0.6104    0.0000 H   0  0  0  0  0  0  0  0  0  0  0  0
    0.6707    0.0311    0.0000 H   0  0  0  0  0  0  0  0  0  0  0  0
    0.1067   -0.9023    0.0000 H   0  0  0  0  0  0  0  0  0  0  0  0
    0.0329   -1.0530    0.0000 H   0  0  0  0  0  0  0  0  0  0  0  0
   -0.6363   -2.3089    0.0000 H   0  0  0  0  0  0  0  0  0  0  0  0
   -0.9405   -2.7125    0.0000 H   0  0  0  0  0  0  0  0  0  0  0  0
   -1.7905   -3.6414    0.0000 H   0  0  0  0  0  0  0  0  0  0  0  0
   -2.1655   -3.9801    0.0000 H   0  0  0  0  0  0  0  0  0  0  0  0
   -3.1760   -4.7314    0.0000 H   0  0  0  0  0  0  0  0  0  0  0  0
   -3.6084   -4.9931    0.0000 H   0  0  0  0  0  0  0  0  0  0  0  0
   -4.9258   -5.5312    0.0000 H   0  0  0  0  0  0  0  0  0  0  0  0
   -5.7901   -6.0095    0.0000 H   0  0  0  0  0  0  0  0  0  0  0  0
    2.3652    3.5343    0.0000 H   0  0  0  0  0  0  0  0  0  0  0  0
    1.9978    5.1263    0.0000 H   0  0  0  0  0  0  0  0  0  0  0  0
    0.2287    5.3594    0.0000 H   0  0  0  0  0  0  0  0  0  0  0  0
    0.5143    6.5640    0.0000 H   0  0  0  0  0  0  0  0  0  0  0  0
   -0.1477    7.3411    0.0000 H   0  0  0  0  0  0  0  0  0  0  0  0
   -0.9136   10.3328    0.0000 H   0  0  0  0  0  0  0  0  0  0  0  0
   -2.3464    9.5477    0.0000 H   0  0  0  0  0  0  0  0  0  0  0  0
    1.9207    8.6166    0.0000 H   0  0  0  0  0  0  0  0  0  0  0  0
    0.7204    7.5081    0.0000 H   0  0  0  0  0  0  0  0  0  0  0  0
    1.1957   11.8497    0.0000 H   0  0  0  0  0  0  0  0  0  0  0  0
   -0.3139   10.8982    0.0000 H   0  0  0  0  0  0  0  0  0  0  0  0
    3.4521    9.2856    0.0000 H   0  0  0  0  0  0  0  0  0  0  0  0
    5.3024   13.3876    0.0000 H   0  0  0  0  0  0  0  0  0  0  0  0
    5.5614   10.8025    0.0000 H   0  0  0  0  0  0  0  0  0  0  0  0
    2.9341   14.4559    0.0000 H   0  0  0  0  0  0  0  0  0  0  0  0
    0.8248   12.9390    0.0000 H   0  0  0  0  0  0  0  0  0  0  0  0
   -2.9022   10.8277    0.0000 H   0  0  0  0  0  0  0  0  0  0  0  0
   -3.8296   11.1677    0.0000 H   0  0  0  0  0  0  0  0  0  0  0  0
   -5.8301   13.1913    0.0000 H   0  0  0  0  0  0  0  0  0  0  0  0
   -6.7771   11.6788    0.0000 H   0  0  0  0  0  0  0  0  0  0  0  0
   -4.3272   14.2116    0.0000 H   0  0  0  0  0  0  0  0  0  0  0  0
   -7.7542   12.4391    0.0000 H   0  0  0  0  0  0  0  0  0  0  0  0
   -8.9007   12.2398    0.0000 H   0  0  0  0  0  0  0  0  0  0  0  0
  -11.6776   12.8606    0.0000 H   0  0  0  0  0  0  0  0  0  0  0  0
  -11.6566   11.0763    0.0000 H   0  0  0  0  0  0  0  0  0  0  0  0
   -7.3880   12.6929    0.0000 H   0  0  0  0  0  0  0  0  0  0  0  0
   -6.5503   15.4037    0.0000 H   0  0  0  0  0  0  0  0  0  0  0  0
   -8.5254   17.6618    0.0000 H   0  0  0  0  0  0  0  0  0  0  0  0
  -11.4685   17.0803    0.0000 H   0  0  0  0  0  0  0  0  0  0  0  0
  -12.4365   14.2407    0.0000 H   0  0  0  0  0  0  0  0  0  0  0  0
  -12.8896   11.1876    0.0000 H   0  0  0  0  0  0  0  0  0  0  0  0
  -13.7464   10.4001    0.0000 H   0  0  0  0  0  0  0  0  0  0  0  0
  -16.4180    9.4211    0.0000 H   0  0  0  0  0  0  0  0  0  0  0  0
  -15.4357    7.9314    0.0000 H   0  0  0  0  0  0  0  0  0  0  0  0
  -12.7188   11.5991    0.0000 H   0  0  0  0  0  0  0  0  0  0  0  0
  -13.4796   14.3325    0.0000 H   0  0  0  0  0  0  0  0  0  0  0  0
  -16.3620   15.1642    0.0000 H   0  0  0  0  0  0  0  0  0  0  0  0
  -18.5235   13.0839    0.0000 H   0  0  0  0  0  0  0  0  0  0  0  0
  -17.8026   10.1718    0.0000 H   0  0  0  0  0  0  0  0  0  0  0  0
  -16.6236    7.1991    0.0000 H   0  0  0  0  0  0  0  0  0  0  0  0
  -16.8282    6.2327    0.0000 H   0  0  0  0  0  0  0  0  0  0  0  0
  -18.3330    5.7363    0.0000 H   0  0  0  0  0  0  0  0  0  0  0  0
  -18.5464    3.9647    0.0000 H   0  0  0  0  0  0  0  0  0  0  0  0
  -16.9146    3.2425    0.0000 H   0  0  0  0  0  0  0  0  0  0  0  0
  -17.5281    2.1672    0.0000 H   0  0  0  0  0  0  0  0  0  0  0  0
  -17.1118    1.2351    0.0000 H   0  0  0  0  0  0  0  0  0  0  0  0
  -17.2198   -1.8512    0.0000 H   0  0  0  0  0  0  0  0  0  0  0  0
  -15.6238   -1.5016    0.0000 H   0  0  0  0  0  0  0  0  0  0  0  0
  -17.9918    1.3194    0.0000 H   0  0  0  0  0  0  0  0  0  0  0  0
  -20.6392   -1.2135    0.0000 H   0  0  0  0  0  0  0  0  0  0  0  0
  -19.6710   -2.7124    0.0000 H   0  0  0  0  0  0  0  0  0  0  0  0
  -17.9545   -2.2248    0.0000 H   0  0  0  0  0  0  0  0  0  0  0  0
  -20.8430    0.0235    0.0000 H   0  0  0  0  0  0  0  0  0  0  0  0
  -20.4070    1.7538    0.0000 H   0  0  0  0  0  0  0  0  0  0  0  0
  -18.4788    1.7322    0.0000 H   0  0  0  0  0  0  0  0  0  0  0  0
  -15.5585   -2.7379    0.0000 H   0  0  0  0  0  0  0  0  0  0  0  0
  -11.9164   -5.3420    0.0000 H   0  0  0  0  0  0  0  0  0  0  0  0
  -13.0853   -4.8739    0.0000 H   0  0  0  0  0  0  0  0  0  0  0  0
  -10.4375   -5.9281    0.0000 H   0  0  0  0  0  0  0  0  0  0  0  0
  -11.4937   -5.6567    0.0000 H   0  0  0  0  0  0  0  0  0  0  0  0
   -8.5236   -6.1242    0.0000 H   0  0  0  0  0  0  0  0  0  0  0  0
   -9.9440   -6.0372    0.0000 H   0  0  0  0  0  0  0  0  0  0  0  0
   -7.5515   -6.2997    0.0000 H   0  0  0  0  0  0  0  0  0  0  0  0
  -15.3041   -4.8272    0.0000 H   0  0  0  0  0  0  0  0  0  0  0  0
  -16.1565   -3.4333    0.0000 H   0  0  0  0  0  0  0  0  0  0  0  0
  -15.2300   -2.0876    0.0000 H   0  0  0  0  0  0  0  0  0  0  0  0
  -16.1176   -4.2783    0.0000 H   0  0  0  0  0  0  0  0  0  0  0  0
  -13.5382   -6.4800    0.0000 H   0  0  0  0  0  0  0  0  0  0  0  0
  -13.9264   -9.2722    0.0000 H   0  0  0  0  0  0  0  0  0  0  0  0
  -13.3332   -7.4374    0.0000 H   0  0  0  0  0  0  0  0  0  0  0  0
  -15.7085   -9.7650    0.0000 H   0  0  0  0  0  0  0  0  0  0  0  0
  -18.3377   -7.6815    0.0000 H   0  0  0  0  0  0  0  0  0  0  0  0
  -20.9499   -8.7415    0.0000 H   0  0  0  0  0  0  0  0  0  0  0  0
  -19.3161   -7.7172    0.0000 H   0  0  0  0  0  0  0  0  0  0  0  0
  -20.4314  -12.0141    0.0000 H   0  0  0  0  0  0  0  0  0  0  0  0
  -19.1814  -11.6059    0.0000 H   0  0  0  0  0  0  0  0  0  0  0  0
  -23.9251  -11.9630    0.0000 H   0  0  0  0  0  0  0  0  0  0  0  0
  -22.1824  -13.4301    0.0000 H   0  0  0  0  0  0  0  0  0  0  0  0
  -20.9914  -10.5900    0.0000 H   0  0  0  0  0  0  0  0  0  0  0  0
  -18.3276  -12.6291    0.0000 H   0  0  0  0  0  0  0  0  0  0  0  0
  -18.2018  -13.4212    0.0000 H   0  0  0  0  0  0  0  0  0  0  0  0
  -20.4929  -16.6499    0.0000 H   0  0  0  0  0  0  0  0  0  0  0  0
  -22.0157  -15.7198    0.0000 H   0  0  0  0  0  0  0  0  0  0  0  0
  -21.9260  -14.4079    0.0000 H   0  0  0  0  0  0  0  0  0  0  0  0
  -18.4018  -16.8881    0.0000 H   0  0  0  0  0  0  0  0  0  0  0  0
  -20.0266  -16.1505    0.0000 H   0  0  0  0  0  0  0  0  0  0  0  0
  -16.4200  -16.6376    0.0000 H   0  0  0  0  0  0  0  0  0  0  0  0
  -15.8269  -14.8028    0.0000 H   0  0  0  0  0  0  0  0  0  0  0  0
  -17.3497  -13.8727    0.0000 H   0  0  0  0  0  0  0  0  0  0  0  0
  1  2  1  0
  2  3  1  0
  3  4  2  0
  4  5  1  0
  5  6  2  0
  6  7  1  0
  7  8  2  0
  7  9  1  0
  9 10  1  0
 10 11  1  0
 11 12  2  0
  9 13  1  0
 13 14  1  0
 14 15  2  0
 15 16  1  0
 16 17  2  0
 17 18  1  0
 16 19  1  0
 14 20  1  0
 20 21  1  0
 21 22  2  0
 22 23  1  0
 23 24  2  0
 24 25  1  0
 25 26  2  0
 25 27  1  0
  1 28  2  0
  1 29  1  0
 29 30  1  0
 30 31  1  0
 31 32  1  0
 32 33  1  0
 33 34  1  0
 34 35  1  0
 35 36  1  0
 36 37  1  0
 37 38  1  0
 38 39  1  0
 39 40  1  0
 40 41  2  0
 40 42  1  0
 42 43  1  0
 43 44  1  0
 44 45  1  0
 45 46  1  0
 45 47  2  0
 43 48  1  0
 48 49  2  0
 48 50  1  0
 50 51  1  0
 51 52  1  0
 52 53  1  0
 53 54  1  0
 54 55  1  0
 54 56  2  0
 51 57  1  0
 57 58  2  0
 57 59  1  0
 59 60  1  0
 60 61  1  0
 61 62  1  0
 62 63  1  0
 62 64  1  0
 60 65  1  0
 65 66  2  0
 65 67  1  0
 68 67  1  6
 68 69  1  0
 69 70  1  0
 70 71  1  0
 71 72  1  0
 72 73  1  0
 73 74  1  0
 74 75  1  0
 68 76  1  0
 68 77  1  0
 77 78  2  0
 77 79  1  0
 79 80  1  0
 80 81  1  0
 81 82  1  0
 82 83  1  0
 83 84  1  0
 84 85  1  0
 85 86  2  3
 85 87  1  0
 80 88  1  0
 88 89  2  0
 88 90  1  0
 90 91  1  0
 91 92  1  0
 92 93  1  0
 91 94  1  0
 94 95  2  0
 94 96  1  0
 96 97  1  0
 97 98  1  0
 98 99  1  0
 99100  2  0
100101  1  0
101102  2  0
102103  1  0
103104  2  0
 97105  1  0
105106  2  0
105107  1  0
107108  1  0
108109  1  0
109110  1  0
110111  2  0
111112  1  0
112113  2  0
113114  1  0
114115  2  0
108116  1  0
116117  2  0
116118  1  0
118119  1  0
119120  1  0
119121  1  0
121122  2  0
121123  1  0
123124  1  0
124125  1  0
125126  1  0
126127  1  0
126128  1  0
124129  1  0
129130  2  0
129131  1  0
131132  1  0
132133  1  0
133134  1  0
134135  1  0
135136  1  0
132137  1  0
132138  1  1
138139  2  0
138140  1  0
140141  1  0
141142  1  0
142143  1  0
143144  2  0
143145  1  0
141146  1  0
146147  2  0
146148  1  0
148149  1  0
149150  1  0
150151  1  0
151152  1  0
152153  1  0
152154  2  0
149155  1  0
155156  2  0
155157  1  0
157158  1  0
158159  1  0
159160  1  0
159161  1  0
161162  1  0
158163  1  0
163164  2  0
163165  1  0
  8  3  1  0
104 99  1  0
115110  1  0
 11  6  1  0
 18 13  2  0
 75136  2  0
 22  9  1  0
 26 21  1  0
  2166  1  0
  4167  1  0
  5168  1  0
  8169  1  0
 15170  1  0
 17171  1  0
 18172  1  0
 19173  1  0
 23174  1  0
 24175  1  0
 26176  1  0
 27177  1  0
 29178  1  0
 30179  1  0
 30180  1  0
 31181  1  0
 31182  1  0
 33183  1  0
 33184  1  0
 35185  1  0
 35186  1  0
 36187  1  0
 36188  1  0
 38189  1  0
 38190  1  0
 39191  1  0
 39192  1  0
 42193  1  0
 43194  1  1
 44195  1  0
 44196  1  0
 46197  1  0
 46198  1  0
 50199  1  0
 51200  1  1
 52201  1  0
 52202  1  0
 53203  1  0
 53204  1  0
 55205  1  0
 55206  1  0
 59207  1  0
 60208  1  1
 61209  1  0
 61210  1  0
 62211  1  0
 63212  1  0
 63213  1  0
 63214  1  0
 64215  1  0
 64216  1  0
 64217  1  0
 67218  1  0
 69219  1  0
 69220  1  0
 70221  1  0
 70222  1  0
 71223  1  0
 71224  1  0
 72225  1  0
 72226  1  0
 73227  1  0
 73228  1  0
 74229  1  0
 74230  1  0
 75231  1  0
 76232  1  0
 76233  1  0
 76234  1  0
 79235  1  0
 80236  1  6
 81237  1  0
 81238  1  0
 82239  1  0
 82240  1  0
 83241  1  0
 83242  1  0
 84243  1  0
 86244  1  0
 86245  1  0
 87246  1  0
 87247  1  0
 90248  1  0
 91249  1  6
 92250  1  0
 92251  1  0
 93252  1  0
 96253  1  0
 97254  1  6
 98255  1  0
 98256  1  0
100257  1  0
101258  1  0
102259  1  0
103260  1  0
104261  1  0
107262  1  0
108263  1  6
109264  1  0
109265  1  0
111266  1  0
112267  1  0
113268  1  0
114269  1  0
115270  1  0
118271  1  0
119272  1  6
120273  1  0
120274  1  0
120275  1  0
123276  1  0
124277  1  6
125278  1  0
125279  1  0
126280  1  0
127281  1  0
127282  1  0
127283  1  0
128284  1  0
128285  1  0
128286  1  0
131287  1  0
133288  1  0
133289  1  0
134290  1  0
134291  1  0
135292  1  0
135293  1  0
136294  1  0
137295  1  0
137296  1  0
137297  1  0
140298  1  0
141299  1  1
142300  1  0
142301  1  0
148302  1  0
149303  1  6
150304  1  0
150305  1  0
151306  1  0
151307  1  0
153308  1  0
153309  1  0
157310  1  0
158311  1  1
159312  1  1
160313  1  0
160314  1  0
160315  1  0
161316  1  0
161317  1  0
162318  1  0
162319  1  0
162320  1  0
M  CHG  3  86   1 145  -1 165  -1
M  END
