
     RDKit          2D

453459  0  0  0  0  0  0  0  0999 V2000
   -0.7491   -2.0787    0.0000 C   0  0  0  0  0  0  0  0  0  0  0  0
   -1.7768   -3.1714    0.0000 N   0  0  0  0  0  0  0  0  0  0  0  0
   -1.3444   -4.6077    0.0000 C   0  0  0  0  0  0  0  0  0  0  0  0
    0.1157   -4.9514    0.0000 C   0  0  0  0  0  0  0  0  0  0  0  0
    0.5481   -6.3877    0.0000 C   0  0  0  0  0  0  0  0  0  0  0  0
   -0.4796   -7.4803    0.0000 C   0  0  0  0  0  0  0  0  0  0  0  0
   -1.9397   -7.1367    0.0000 C   0  0  0  0  0  0  0  0  0  0  0  0
   -2.3721   -5.7003    0.0000 C   0  0  0  0  0  0  0  0  0  0  0  0
   -2.7177   -8.4191    0.0000 C   0  0  0  0  0  0  0  0  0  0  0  0
   -1.7385   -9.5554    0.0000 O   0  0  0  0  0  0  0  0  0  0  0  0
   -0.3553   -8.9752    0.0000 C   0  0  0  0  0  0  0  0  0  0  0  0
    0.7008  -10.0404    0.0000 O   0  0  0  0  0  0  0  0  0  0  0  0
   -3.3575   -9.7758    0.0000 C   0  0  0  0  0  0  0  0  0  0  0  0
   -4.8523   -9.9001    0.0000 C   0  0  0  0  0  0  0  0  0  0  0  0
   -5.4921  -11.2569    0.0000 C   0  0  0  0  0  0  0  0  0  0  0  0
   -4.6370  -12.4893    0.0000 C   0  0  0  0  0  0  0  0  0  0  0  0
   -3.1422  -12.3649    0.0000 C   0  0  0  0  0  0  0  0  0  0  0  0
   -2.5024  -11.0082    0.0000 C   0  0  0  0  0  0  0  0  0  0  0  0
   -5.2768  -13.8460    0.0000 O   0  0  0  0  0  0  0  0  0  0  0  0
   -5.7074   -8.6677    0.0000 O   0  0  0  0  0  0  0  0  0  0  0  0
   -5.0677   -7.3110    0.0000 C   0  0  0  0  0  0  0  0  0  0  0  0
   -3.5728   -7.1867    0.0000 C   0  0  0  0  0  0  0  0  0  0  0  0
   -3.6307   -5.8880    0.0000 C   0  0  0  0  0  0  0  0  0  0  0  0
   -4.0867   -5.2307    0.0000 C   0  0  0  0  0  0  0  0  0  0  0  0
   -4.8840   -5.2970    0.0000 C   0  0  0  0  0  0  0  0  0  0  0  0
   -5.2252   -6.0206    0.0000 C   0  0  0  0  0  0  0  0  0  0  0  0
   -6.1381   -3.4894    0.0000 O   0  0  0  0  0  0  0  0  0  0  0  0
    0.7110   -2.4224    0.0000 S   0  0  0  0  0  0  0  0  0  0  0  0
   -1.1815   -0.6424    0.0000 N   0  0  0  0  0  0  0  0  0  0  0  0
   -0.1538    0.4502    0.0000 C   0  0  0  0  0  0  0  0  0  0  0  0
   -0.5862    1.8865    0.0000 C   0  0  0  0  0  0  0  0  0  0  0  0
    0.4415    2.9792    0.0000 C   0  0  0  0  0  0  0  0  0  0  0  0
    1.1894    2.7033    0.0000 O   0  0  0  0  0  0  0  0  0  0  0  0
    0.0091    4.4155    0.0000 N   0  0  0  0  0  0  0  0  0  0  0  0
    1.0368    5.5081    0.0000 C   0  0  0  0  0  0  0  0  0  0  0  0
    1.9344    4.3063    0.0000 C   0  0  0  0  0  0  0  0  0  0  0  0
    1.5148    2.8662    0.0000 O   0  0  0  0  0  0  0  0  0  0  0  0
    1.6288    6.8864    0.0000 C   0  0  0  0  0  0  0  0  0  0  0  0
    3.1184    7.0628    0.0000 O   0  0  0  0  0  0  0  0  0  0  0  0
    0.7312    8.0882    0.0000 N   0  0  0  0  0  0  0  0  0  0  0  0
    1.3232    9.4664    0.0000 C   0  0  0  0  0  0  0  0  0  0  0  0
   -0.1368    9.8101    0.0000 C   0  0  0  0  0  0  0  0  0  0  0  0
   -1.1645    8.7175    0.0000 C   0  0  0  0  0  0  0  0  0  0  0  0
   -2.6246    9.0612    0.0000 C   0  0  0  0  0  0  0  0  0  0  0  0
   -3.5115    7.8514    0.0000 O   0  0  0  0  0  0  0  0  0  0  0  0
   -2.8787   10.5395    0.0000 O   0  0  0  0  0  0  0  0  0  0  0  0
    2.3509   10.5590    0.0000 C   0  0  0  0  0  0  0  0  0  0  0  0
    1.5838   11.8481    0.0000 O   0  0  0  0  0  0  0  0  0  0  0  0
    3.8110   10.2153    0.0000 N   0  0  0  0  0  0  0  0  0  0  0  0
    4.8387   11.3080    0.0000 C   0  0  0  0  0  0  0  0  0  0  0  0
    3.5842   12.1303    0.0000 C   0  0  0  0  0  0  0  0  0  0  0  0
    2.2448   11.4551    0.0000 C   0  0  0  0  0  0  0  0  0  0  0  0
    0.9903   12.2774    0.0000 C   0  0  0  0  0  0  0  0  0  0  0  0
   -0.4214   11.7705    0.0000 O   0  0  0  0  0  0  0  0  0  0  0  0
    1.0753   13.7750    0.0000 O   0  0  0  0  0  0  0  0  0  0  0  0
    6.1781   11.9832    0.0000 C   0  0  0  0  0  0  0  0  0  0  0  0
    5.8982   13.4569    0.0000 O   0  0  0  0  0  0  0  0  0  0  0  0
    7.4326   11.1609    0.0000 N   0  0  0  0  0  0  0  0  0  0  0  0
    8.7721   11.8361    0.0000 C   0  0  0  0  0  0  0  0  0  0  0  0
    7.8745   13.0379    0.0000 C   0  0  0  0  0  0  0  0  0  0  0  0
    6.3849   12.8615    0.0000 C   0  0  0  0  0  0  0  0  0  0  0  0
    5.4873   14.0633    0.0000 C   0  0  0  0  0  0  0  0  0  0  0  0
    5.0455   12.1863    0.0000 C   0  0  0  0  0  0  0  0  0  0  0  0
   10.2616   12.0125    0.0000 C   0  0  0  0  0  0  0  0  0  0  0  0
   10.6812   13.4527    0.0000 O   0  0  0  0  0  0  0  0  0  0  0  0
   11.1592   10.8107    0.0000 N   0  0  0  0  0  0  0  0  0  0  0  0
   12.6488   10.9871    0.0000 C   0  0  0  0  0  0  0  0  0  0  0  0
   12.2164   12.4235    0.0000 C   0  0  0  0  0  0  0  0  0  0  0  0
   10.8091   12.9426    0.0000 C   0  0  0  0  0  0  0  0  0  0  0  0
   14.1089   10.6435    0.0000 C   0  0  0  0  0  0  0  0  0  0  0  0
   14.9957   11.8532    0.0000 O   0  0  0  0  0  0  0  0  0  0  0  0
   14.5413    9.2071    0.0000 N   0  0  0  0  0  0  0  0  0  0  0  0
   16.0014    8.8634    0.0000 C   0  0  0  0  0  0  0  0  0  0  0  0
   16.0863   10.3610    0.0000 C   0  0  0  0  0  0  0  0  0  0  0  0
   17.2559    8.0411    0.0000 C   0  0  0  0  0  0  0  0  0  0  0  0
   18.3921    9.0204    0.0000 O   0  0  0  0  0  0  0  0  0  0  0  0
   17.1710    6.5435    0.0000 N   0  0  0  0  0  0  0  0  0  0  0  0
   18.4255    5.7211    0.0000 C   0  0  0  0  0  0  0  0  0  0  0  0
   19.0175    7.0994    0.0000 C   0  0  0  0  0  0  0  0  0  0  0  0
   18.1199    8.3012    0.0000 C   0  0  0  0  0  0  0  0  0  0  0  0
   18.7119    9.6794    0.0000 C   0  0  0  0  0  0  0  0  0  0  0  0
   17.9675   10.9817    0.0000 O   0  0  0  0  0  0  0  0  0  0  0  0
   20.2015    9.8558    0.0000 O   0  0  0  0  0  0  0  0  0  0  0  0
   19.3230    4.5193    0.0000 C   0  0  0  0  0  0  0  0  0  0  0  0
   20.7800    4.8760    0.0000 O   0  0  0  0  0  0  0  0  0  0  0  0
   18.7310    3.1411    0.0000 N   0  0  0  0  0  0  0  0  0  0  0  0
   19.6286    1.9393    0.0000 C   0  0  0  0  0  0  0  0  0  0  0  0
   20.3614    3.2481    0.0000 C   0  0  0  0  0  0  0  0  0  0  0  0
   20.0610    0.5030    0.0000 C   0  0  0  0  0  0  0  0  0  0  0  0
   21.5609    0.5228    0.0000 O   0  0  0  0  0  0  0  0  0  0  0  0
   19.0333   -0.5897    0.0000 N   0  0  0  0  0  0  0  0  0  0  0  0
   19.4657   -2.0260    0.0000 C   0  0  0  0  0  0  0  0  0  0  0  0
   20.8051   -1.3508    0.0000 C   0  0  0  0  0  0  0  0  0  0  0  0
   20.8900    0.1468    0.0000 C   0  0  0  0  0  0  0  0  0  0  0  0
   19.7284    1.0958    0.0000 C   0  0  0  0  0  0  0  0  0  0  0  0
   20.2719    2.4939    0.0000 N   0  0  0  0  0  0  0  0  0  0  0  0
   21.7695    2.4089    0.0000 C   0  0  0  0  0  0  0  0  0  0  0  0
   22.1515    0.9584    0.0000 N   0  0  0  0  0  0  0  0  0  0  0  0
   19.3808   -3.5236    0.0000 C   0  0  0  0  0  0  0  0  0  0  0  0
   20.7970   -4.0179    0.0000 O   0  0  0  0  0  0  0  0  0  0  0  0
   18.0413   -4.1988    0.0000 N   0  0  0  0  0  0  0  0  0  0  0  0
   17.9564   -5.6964    0.0000 C   0  0  0  0  0  0  0  0  0  0  0  0
   19.4460   -5.5200    0.0000 C   0  0  0  0  0  0  0  0  0  0  0  0
   20.0380   -4.1418    0.0000 C   0  0  0  0  0  0  0  0  0  0  0  0
   21.5276   -3.9654    0.0000 N   0  0  0  0  0  0  0  0  0  0  0  0
   19.4579   -2.7585    0.0000 O   0  0  0  0  0  0  0  0  0  0  0  0
   17.3644   -7.0747    0.0000 C   0  0  0  0  0  0  0  0  0  0  0  0
   18.5261   -8.0236    0.0000 O   0  0  0  0  0  0  0  0  0  0  0  0
   15.8748   -7.2511    0.0000 N   0  0  0  0  0  0  0  0  0  0  0  0
   15.2828   -8.6293    0.0000 C   0  0  0  0  0  0  0  0  0  0  0  0
   16.7429   -8.9730    0.0000 C   0  0  0  0  0  0  0  0  0  0  0  0
   17.7706   -7.8804    0.0000 C   0  0  0  0  0  0  0  0  0  0  0  0
   19.2307   -8.2241    0.0000 C   0  0  0  0  0  0  0  0  0  0  0  0
   18.3626   -6.5021    0.0000 C   0  0  0  0  0  0  0  0  0  0  0  0
   14.2551   -9.7219    0.0000 C   0  0  0  0  0  0  0  0  0  0  0  0
   14.8594  -11.0948    0.0000 O   0  0  0  0  0  0  0  0  0  0  0  0
   12.7950   -9.3782    0.0000 N   0  0  0  0  0  0  0  0  0  0  0  0
   11.7673  -10.4709    0.0000 C   0  0  0  0  0  0  0  0  0  0  0  0
   13.0218  -11.2932    0.0000 C   0  0  0  0  0  0  0  0  0  0  0  0
   14.4335  -10.7863    0.0000 S   0  0  0  0  0  0  0  0  0  0  0  0
   10.4279  -11.1461    0.0000 C   0  0  0  0  0  0  0  0  0  0  0  0
   10.5262  -12.6429    0.0000 O   0  0  0  0  0  0  0  0  0  0  0  0
    9.1734  -10.3238    0.0000 N   0  0  0  0  0  0  0  0  0  0  0  0
    7.8340  -10.9990    0.0000 C   0  0  0  0  0  0  0  0  0  0  0  0
    8.7316  -12.2008    0.0000 C   0  0  0  0  0  0  0  0  0  0  0  0
    9.1640  -13.6372    0.0000 O   0  0  0  0  0  0  0  0  0  0  0  0
   10.2316  -12.2073    0.0000 C   0  0  0  0  0  0  0  0  0  0  0  0
    6.3444  -11.1754    0.0000 C   0  0  0  0  0  0  0  0  0  0  0  0
    6.1035  -12.6560    0.0000 O   0  0  0  0  0  0  0  0  0  0  0  0
    5.4468   -9.9736    0.0000 N   0  0  0  0  0  0  0  0  0  0  0  0
    3.9572  -10.1500    0.0000 C   0  0  0  0  0  0  0  0  0  0  0  0
    4.3896  -11.5864    0.0000 C   0  0  0  0  0  0  0  0  0  0  0  0
    5.8497  -11.9301    0.0000 C   0  0  0  0  0  0  0  0  0  0  0  0
    6.2821  -13.3664    0.0000 C   0  0  0  0  0  0  0  0  0  0  0  0
    7.3393  -11.7536    0.0000 C   0  0  0  0  0  0  0  0  0  0  0  0
    2.4971   -9.8063    0.0000 C   0  0  0  0  0  0  0  0  0  0  0  0
    1.7644  -11.1152    0.0000 O   0  0  0  0  0  0  0  0  0  0  0  0
    2.0647   -8.3700    0.0000 N   0  0  0  0  0  0  0  0  0  0  0  0
    0.6046   -8.0263    0.0000 C   0  0  0  0  0  0  0  0  0  0  0  0
    0.5197   -9.5239    0.0000 C   0  0  0  0  0  0  0  0  0  0  0  0
    1.7742  -10.3463    0.0000 C   0  0  0  0  0  0  0  0  0  0  0  0
    1.6893  -11.8439    0.0000 C   0  0  0  0  0  0  0  0  0  0  0  0
    3.2343  -10.6900    0.0000 C   0  0  0  0  0  0  0  0  0  0  0  0
   -0.6498   -7.2040    0.0000 C   0  0  0  0  0  0  0  0  0  0  0  0
   -1.5153   -8.4291    0.0000 O   0  0  0  0  0  0  0  0  0  0  0  0
   -0.5649   -5.7064    0.0000 N   0  0  0  0  0  0  0  0  0  0  0  0
   -1.8194   -4.8840    0.0000 C   0  0  0  0  0  0  0  0  0  0  0  0
   -2.4114   -6.2623    0.0000 C   0  0  0  0  0  0  0  0  0  0  0  0
   -1.5138   -7.4641    0.0000 C   0  0  0  0  0  0  0  0  0  0  0  0
   -2.1059   -8.8423    0.0000 C   0  0  0  0  0  0  0  0  0  0  0  0
   -0.9441   -9.7912    0.0000 O   0  0  0  0  0  0  0  0  0  0  0  0
   -3.5085   -9.3739    0.0000 O   0  0  0  0  0  0  0  0  0  0  0  0
   -2.7170   -3.6822    0.0000 C   0  0  0  0  0  0  0  0  0  0  0  0
   -4.1196   -4.2138    0.0000 O   0  0  0  0  0  0  0  0  0  0  0  0
   -2.1250   -2.3040    0.0000 N   0  0  0  0  0  0  0  0  0  0  0  0
   -3.0225   -1.1022    0.0000 C   0  0  0  0  0  0  0  0  0  0  0  0
   -3.7008   -2.4401    0.0000 C   0  0  0  0  0  0  0  0  0  0  0  0
   -4.6200   -3.6255    0.0000 C   0  0  0  0  0  0  0  0  0  0  0  0
   -5.7469   -4.6155    0.0000 C   0  0  0  0  0  0  0  0  0  0  0  0
   -7.0408   -5.3743    0.0000 C   0  0  0  0  0  0  0  0  0  0  0  0
   -8.4549   -5.8746    0.0000 C   0  0  0  0  0  0  0  0  0  0  0  0
   -9.9381   -6.0981    0.0000 C   0  0  0  0  0  0  0  0  0  0  0  0
  -11.4369   -6.0370    0.0000 C   0  0  0  0  0  0  0  0  0  0  0  0
   -1.5255   -1.1967    0.0000 C   0  0  0  0  0  0  0  0  0  0  0  0
   -2.6098    0.3399    0.0000 C   0  0  0  0  0  0  0  0  0  0  0  0
   -1.1793   -0.1117    0.0000 O   0  0  0  0  0  0  0  0  0  0  0  0
   -2.4774    1.8341    0.0000 N   0  0  0  0  0  0  0  0  0  0  0  0
   -2.6301    3.3263    0.0000 C   0  0  0  0  0  0  0  0  0  0  0  0
   -1.6683    4.4773    0.0000 C   0  0  0  0  0  0  0  0  0  0  0  0
   -3.0625    4.7626    0.0000 C   0  0  0  0  0  0  0  0  0  0  0  0
   -1.8523    5.6487    0.0000 O   0  0  0  0  0  0  0  0  0  0  0  0
   -3.7589    6.0911    0.0000 N   0  0  0  0  0  0  0  0  0  0  0  0
   -4.6942    7.2638    0.0000 C   0  0  0  0  0  0  0  0  0  0  0  0
   -4.3274    8.7183    0.0000 C   0  0  0  0  0  0  0  0  0  0  0  0
   -2.9451    9.3007    0.0000 C   0  0  0  0  0  0  0  0  0  0  0  0
   -4.4801   10.2105    0.0000 C   0  0  0  0  0  0  0  0  0  0  0  0
   -3.3804   11.2306    0.0000 C   0  0  0  0  0  0  0  0  0  0  0  0
   -5.8345    8.2384    0.0000 C   0  0  0  0  0  0  0  0  0  0  0  0
   -4.9727    9.4662    0.0000 O   0  0  0  0  0  0  0  0  0  0  0  0
   -7.1386    8.9795    0.0000 N   0  0  0  0  0  0  0  0  0  0  0  0
   -8.5594    9.4604    0.0000 C   0  0  0  0  0  0  0  0  0  0  0  0
   -9.0372   10.8823    0.0000 C   0  0  0  0  0  0  0  0  0  0  0  0
   -8.0447   12.0070    0.0000 C   0  0  0  0  0  0  0  0  0  0  0  0
   -8.5224   13.4289    0.0000 C   0  0  0  0  0  0  0  0  0  0  0  0
   -7.5299   14.5536    0.0000 N   0  0  0  0  0  0  0  0  0  0  0  0
   -9.9927   13.7261    0.0000 O   0  0  0  0  0  0  0  0  0  0  0  0
  -10.0456    9.6638    0.0000 C   0  0  0  0  0  0  0  0  0  0  0  0
  -10.1676   11.1588    0.0000 O   0  0  0  0  0  0  0  0  0  0  0  0
  -11.5433    9.5822    0.0000 N   0  0  0  0  0  0  0  0  0  0  0  0
  -12.9986    9.2186    0.0000 C   0  0  0  0  0  0  0  0  0  0  0  0
  -14.1693   10.1565    0.0000 C   0  0  0  0  0  0  0  0  0  0  0  0
  -13.9424   11.6392    0.0000 C   0  0  0  0  0  0  0  0  0  0  0  0
  -15.1130   12.5771    0.0000 O   0  0  0  0  0  0  0  0  0  0  0  0
  -12.5448   12.1841    0.0000 O   0  0  0  0  0  0  0  0  0  0  0  0
  -14.3588    8.5862    0.0000 C   0  0  0  0  0  0  0  0  0  0  0  0
  -15.2697    9.7780    0.0000 O   0  0  0  0  0  0  0  0  0  0  0  0
  -15.5747    7.7078    0.0000 N   0  0  0  0  0  0  0  0  0  0  0  0
  -16.6024    6.6152    0.0000 C   0  0  0  0  0  0  0  0  0  0  0  0
  -18.0942    6.7713    0.0000 C   0  0  0  0  0  0  0  0  0  0  0  0
  -19.5830    6.5878    0.0000 O   0  0  0  0  0  0  0  0  0  0  0  0
  -18.7050    8.1413    0.0000 C   0  0  0  0  0  0  0  0  0  0  0  0
  -17.4047    5.3478    0.0000 C   0  0  0  0  0  0  0  0  0  0  0  0
  -18.8153    5.8579    0.0000 O   0  0  0  0  0  0  0  0  0  0  0  0
  -17.9527    3.9515    0.0000 N   0  0  0  0  0  0  0  0  0  0  0  0
  -18.2265    2.4767    0.0000 C   0  0  0  0  0  0  0  0  0  0  0  0
  -19.5660    1.8015    0.0000 C   0  0  0  0  0  0  0  0  0  0  0  0
  -20.8205    2.6238    0.0000 C   0  0  0  0  0  0  0  0  0  0  0  0
  -18.2163    0.9767    0.0000 C   0  0  0  0  0  0  0  0  0  0  0  0
  -19.6788    0.6432    0.0000 O   0  0  0  0  0  0  0  0  0  0  0  0
  -17.9224   -0.4942    0.0000 N   0  0  0  0  0  0  0  0  0  0  0  0
  -17.3554   -1.8829    0.0000 C   0  0  0  0  0  0  0  0  0  0  0  0
  -16.5359   -3.1392    0.0000 C   0  0  0  0  0  0  0  0  0  0  0  0
  -15.4934   -4.2177    0.0000 C   0  0  0  0  0  0  0  0  0  0  0  0
  -14.2656   -5.0795    0.0000 C   0  0  0  0  0  0  0  0  0  0  0  0
  -12.8970   -5.6933    0.0000 C   0  0  0  0  0  0  0  0  0  0  0  0
  -18.8515   -1.7742    0.0000 C   0  0  0  0  0  0  0  0  0  0  0  0
  -18.1172   -3.1751    0.0000 C   0  0  0  0  0  0  0  0  0  0  0  0
  -17.7168   -4.6207    0.0000 O   0  0  0  0  0  0  0  0  0  0  0  0
  -19.6171   -3.1615    0.0000 N   0  0  0  0  0  0  0  0  0  0  0  0
  -20.3788   -4.4537    0.0000 C   0  0  0  0  0  0  0  0  0  0  0  0
  -20.6527   -5.9285    0.0000 C   0  0  0  0  0  0  0  0  0  0  0  0
  -22.0668   -6.4288    0.0000 C   0  0  0  0  0  0  0  0  0  0  0  0
  -22.3406   -7.9036    0.0000 C   0  0  0  0  0  0  0  0  0  0  0  0
  -23.6832   -8.5725    0.0000 O   0  0  0  0  0  0  0  0  0  0  0  0
  -21.2003   -8.8781    0.0000 O   0  0  0  0  0  0  0  0  0  0  0  0
  -21.8788   -4.4401    0.0000 C   0  0  0  0  0  0  0  0  0  0  0  0
  -22.6170   -3.1344    0.0000 O   0  0  0  0  0  0  0  0  0  0  0  0
  -22.6405   -5.7323    0.0000 N   0  0  0  0  0  0  0  0  0  0  0  0
  -24.1404   -5.7188    0.0000 C   0  0  0  0  0  0  0  0  0  0  0  0
  -25.5453   -5.1930    0.0000 C   0  0  0  0  0  0  0  0  0  0  0  0
  -25.7924   -3.7135    0.0000 C   0  0  0  0  0  0  0  0  0  0  0  0
  -27.1972   -3.1877    0.0000 C   0  0  0  0  0  0  0  0  0  0  0  0
  -27.4443   -1.7082    0.0000 N   0  0  0  0  0  0  0  0  0  0  0  0
  -28.3549   -4.1415    0.0000 O   0  0  0  0  0  0  0  0  0  0  0  0
  -24.9022   -7.0110    0.0000 C   0  0  0  0  0  0  0  0  0  0  0  0
  -26.3926   -7.1803    0.0000 O   0  0  0  0  0  0  0  0  0  0  0  0
  -24.3286   -8.3970    0.0000 O   0  0  0  0  0  0  0  0  0  0  0  0
   -3.2679   -3.0082    0.0000 H   0  0  0  0  0  0  0  0  0  0  0  0
    1.1434   -3.8588    0.0000 H   0  0  0  0  0  0  0  0  0  0  0  0
    2.0392   -6.5509    0.0000 H   0  0  0  0  0  0  0  0  0  0  0  0
   -3.7794   -5.1812    0.0000 H   0  0  0  0  0  0  0  0  0  0  0  0
   -6.9869  -11.3812    0.0000 H   0  0  0  0  0  0  0  0  0  0  0  0
   -2.2871  -13.5974    0.0000 H   0  0  0  0  0  0  0  0  0  0  0  0
   -1.0036  -11.0670    0.0000 H   0  0  0  0  0  0  0  0  0  0  0  0
   -4.4217  -15.0784    0.0000 H   0  0  0  0  0  0  0  0  0  0  0  0
   -1.5127   -5.3476    0.0000 H   0  0  0  0  0  0  0  0  0  0  0  0
   -3.3186   -3.1729    0.0000 H   0  0  0  0  0  0  0  0  0  0  0  0
   -7.3431   -6.5609    0.0000 H   0  0  0  0  0  0  0  0  0  0  0  0
   -7.6329   -3.6138    0.0000 H   0  0  0  0  0  0  0  0  0  0  0  0
   -2.5150    0.0444    0.0000 H   0  0  0  0  0  0  0  0  0  0  0  0
    0.7438   -0.7516    0.0000 H   0  0  0  0  0  0  0  0  0  0  0  0
    1.1856    1.1255    0.0000 H   0  0  0  0  0  0  0  0  0  0  0  0
   -2.0786    1.7363    0.0000 H   0  0  0  0  0  0  0  0  0  0  0  0
   -1.3306    3.1888    0.0000 H   0  0  0  0  0  0  0  0  0  0  0  0
   -1.3244    5.1023    0.0000 H   0  0  0  0  0  0  0  0  0  0  0  0
   -0.1081    6.4773    0.0000 H   0  0  0  0  0  0  0  0  0  0  0  0
    3.1889    3.4840    0.0000 H   0  0  0  0  0  0  0  0  0  0  0  0
    2.9621    5.3990    0.0000 H   0  0  0  0  0  0  0  0  0  0  0  0
    2.2399    1.7263    0.0000 H   0  0  0  0  0  0  0  0  0  0  0  0
   -0.7257    7.7315    0.0000 H   0  0  0  0  0  0  0  0  0  0  0  0
    2.5777    8.6441    0.0000 H   0  0  0  0  0  0  0  0  0  0  0  0
   -1.3913   10.6325    0.0000 H   0  0  0  0  0  0  0  0  0  0  0  0
    0.2828   11.2502    0.0000 H   0  0  0  0  0  0  0  0  0  0  0  0
   -1.5841    7.2774    0.0000 H   0  0  0  0  0  0  0  0  0  0  0  0
   -0.2882    7.5001    0.0000 H   0  0  0  0  0  0  0  0  0  0  0  0
    4.2434    8.7790    0.0000 H   0  0  0  0  0  0  0  0  0  0  0  0
    5.5831   10.0057    0.0000 H   0  0  0  0  0  0  0  0  0  0  0  0
    2.6867   13.3321    0.0000 H   0  0  0  0  0  0  0  0  0  0  0  0
    4.3170   13.4392    0.0000 H   0  0  0  0  0  0  0  0  0  0  0  0
    1.2171   10.3625    0.0000 H   0  0  0  0  0  0  0  0  0  0  0  0
    2.8249   10.0718    0.0000 H   0  0  0  0  0  0  0  0  0  0  0  0
    7.3477    9.6633    0.0000 H   0  0  0  0  0  0  0  0  0  0  0  0
    9.2045   10.3998    0.0000 H   0  0  0  0  0  0  0  0  0  0  0  0
    7.6204   14.5163    0.0000 H   0  0  0  0  0  0  0  0  0  0  0  0
    9.2139   13.7132    0.0000 H   0  0  0  0  0  0  0  0  0  0  0  0
    6.4569   11.3633    0.0000 H   0  0  0  0  0  0  0  0  0  0  0  0
    3.9993   14.2526    0.0000 H   0  0  0  0  0  0  0  0  0  0  0  0
    5.0549   15.4997    0.0000 H   0  0  0  0  0  0  0  0  0  0  0  0
    6.7344   14.8968    0.0000 H   0  0  0  0  0  0  0  0  0  0  0  0
    3.7910   13.0086    0.0000 H   0  0  0  0  0  0  0  0  0  0  0  0
    3.7839   11.3748    0.0000 H   0  0  0  0  0  0  0  0  0  0  0  0
    6.0829   11.1028    0.0000 H   0  0  0  0  0  0  0  0  0  0  0  0
   10.5672    9.4325    0.0000 H   0  0  0  0  0  0  0  0  0  0  0  0
   12.5639    9.4896    0.0000 H   0  0  0  0  0  0  0  0  0  0  0  0
   12.3013   13.9211    0.0000 H   0  0  0  0  0  0  0  0  0  0  0  0
   13.7060   12.5999    0.0000 H   0  0  0  0  0  0  0  0  0  0  0  0
   10.3239   14.2035    0.0000 H   0  0  0  0  0  0  0  0  0  0  0  0
    9.2667   12.5907    0.0000 H   0  0  0  0  0  0  0  0  0  0  0  0
   10.2707   11.3526    0.0000 H   0  0  0  0  0  0  0  0  0  0  0  0
   13.5136    8.1145    0.0000 H   0  0  0  0  0  0  0  0  0  0  0  0
   15.4094    7.4852    0.0000 H   0  0  0  0  0  0  0  0  0  0  0  0
   14.9414   11.3302    0.0000 H   0  0  0  0  0  0  0  0  0  0  0  0
   16.6783   11.7393    0.0000 H   0  0  0  0  0  0  0  0  0  0  0  0
   17.5774   10.1979    0.0000 H   0  0  0  0  0  0  0  0  0  0  0  0
   15.8315    5.8682    0.0000 H   0  0  0  0  0  0  0  0  0  0  0  0
   17.3978    4.6285    0.0000 H   0  0  0  0  0  0  0  0  0  0  0  0
   20.0452    8.1920    0.0000 H   0  0  0  0  0  0  0  0  0  0  0  0
   20.2720    6.2770    0.0000 H   0  0  0  0  0  0  0  0  0  0  0  0
   16.8654    9.1235    0.0000 H   0  0  0  0  0  0  0  0  0  0  0  0
   16.8583    7.4897    0.0000 H   0  0  0  0  0  0  0  0  0  0  0  0
   17.2414    2.9647    0.0000 H   0  0  0  0  0  0  0  0  0  0  0  0
   18.2168    1.4323    0.0000 H   0  0  0  0  0  0  0  0  0  0  0  0
   20.3736    4.4759    0.0000 H   0  0  0  0  0  0  0  0  0  0  0  0
   21.9276    3.9030    0.0000 H   0  0  0  0  0  0  0  0  0  0  0  0
   21.8615    2.1608    0.0000 H   0  0  0  0  0  0  0  0  0  0  0  0
   17.5732   -0.2460    0.0000 H   0  0  0  0  0  0  0  0  0  0  0  0
   17.9761   -2.2024    0.0000 H   0  0  0  0  0  0  0  0  0  0  0  0
   22.2947   -1.1743    0.0000 H   0  0  0  0  0  0  0  0  0  0  0  0
   21.4094   -2.7237    0.0000 H   0  0  0  0  0  0  0  0  0  0  0  0
   18.3352    0.5398    0.0000 H   0  0  0  0  0  0  0  0  0  0  0  0
   19.7897    3.9143    0.0000 H   0  0  0  0  0  0  0  0  0  0  0  0
   22.8530    3.4463    0.0000 H   0  0  0  0  0  0  0  0  0  0  0  0
   16.7869   -3.3765    0.0000 H   0  0  0  0  0  0  0  0  0  0  0  0
   16.5491   -5.1773    0.0000 H   0  0  0  0  0  0  0  0  0  0  0  0
   20.9061   -5.8637    0.0000 H   0  0  0  0  0  0  0  0  0  0  0  0
   19.7260   -6.9937    0.0000 H   0  0  0  0  0  0  0  0  0  0  0  0
   22.2832   -2.6696    0.0000 H   0  0  0  0  0  0  0  0  0  0  0  0
   22.4252   -5.1672    0.0000 H   0  0  0  0  0  0  0  0  0  0  0  0
   14.9772   -6.0493    0.0000 H   0  0  0  0  0  0  0  0  0  0  0  0
   14.0283   -7.8070    0.0000 H   0  0  0  0  0  0  0  0  0  0  0  0
   17.8878   -9.9421    0.0000 H   0  0  0  0  0  0  0  0  0  0  0  0
   16.1509  -10.3512    0.0000 H   0  0  0  0  0  0  0  0  0  0  0  0
   16.7524   -6.7789    0.0000 H   0  0  0  0  0  0  0  0  0  0  0  0
   20.4922   -7.4126    0.0000 H   0  0  0  0  0  0  0  0  0  0  0  0
   20.4852   -9.0464    0.0000 H   0  0  0  0  0  0  0  0  0  0  0  0
   18.8111   -9.6642    0.0000 H   0  0  0  0  0  0  0  0  0  0  0  0
   19.8522   -6.3257    0.0000 H   0  0  0  0  0  0  0  0  0  0  0  0
   18.8074   -5.0696    0.0000 H   0  0  0  0  0  0  0  0  0  0  0  0
   16.8715   -6.3390    0.0000 H   0  0  0  0  0  0  0  0  0  0  0  0
   12.3626   -7.9419    0.0000 H   0  0  0  0  0  0  0  0  0  0  0  0
   10.8697   -9.2691    0.0000 H   0  0  0  0  0  0  0  0  0  0  0  0
   13.9194  -12.4950    0.0000 H   0  0  0  0  0  0  0  0  0  0  0  0
   11.9941  -12.3859    0.0000 H   0  0  0  0  0  0  0  0  0  0  0  0
   15.6157  -11.4403    0.0000 H   0  0  0  0  0  0  0  0  0  0  0  0
    9.2583   -8.8262    0.0000 H   0  0  0  0  0  0  0  0  0  0  0  0
    7.5799   -9.5207    0.0000 H   0  0  0  0  0  0  0  0  0  0  0  0
    7.5953  -13.1801    0.0000 H   0  0  0  0  0  0  0  0  0  0  0  0
   10.5713  -14.1563    0.0000 H   0  0  0  0  0  0  0  0  0  0  0  0
   11.2363  -13.1105    0.0000 H   0  0  0  0  0  0  0  0  0  0  0  0
   11.5606  -11.3492    0.0000 H   0  0  0  0  0  0  0  0  0  0  0  0
   10.1937  -10.5291    0.0000 H   0  0  0  0  0  0  0  0  0  0  0  0
    6.0388   -8.5954    0.0000 H   0  0  0  0  0  0  0  0  0  0  0  0
    4.2241   -8.6740    0.0000 H   0  0  0  0  0  0  0  0  0  0  0  0
    4.1228  -13.0624    0.0000 H   0  0  0  0  0  0  0  0  0  0  0  0
    2.9870  -12.1180    0.0000 H   0  0  0  0  0  0  0  0  0  0  0  0
    6.2945  -10.4975    0.0000 H   0  0  0  0  0  0  0  0  0  0  0  0
    7.6157  -14.0532    0.0000 H   0  0  0  0  0  0  0  0  0  0  0  0
    6.1972  -14.8640    0.0000 H   0  0  0  0  0  0  0  0  0  0  0  0
    4.8252  -13.7231    0.0000 H   0  0  0  0  0  0  0  0  0  0  0  0
    8.2369  -12.9555    0.0000 H   0  0  0  0  0  0  0  0  0  0  0  0
    8.8023  -11.4226    0.0000 H   0  0  0  0  0  0  0  0  0  0  0  0
    6.7351  -10.3807    0.0000 H   0  0  0  0  0  0  0  0  0  0  0  0
    3.0924   -7.2774    0.0000 H   0  0  0  0  0  0  0  0  0  0  0  0
    1.6513   -6.9519    0.0000 H   0  0  0  0  0  0  0  0  0  0  0  0
   -0.2359  -10.8197    0.0000 H   0  0  0  0  0  0  0  0  0  0  0  0
   -0.8734  -10.0801    0.0000 H   0  0  0  0  0  0  0  0  0  0  0  0
    2.6821   -9.1523    0.0000 H   0  0  0  0  0  0  0  0  0  0  0  0
    2.7075  -12.9453    0.0000 H   0  0  0  0  0  0  0  0  0  0  0  0
    1.0973  -13.2221    0.0000 H   0  0  0  0  0  0  0  0  0  0  0  0
    0.1982  -11.6807    0.0000 H   0  0  0  0  0  0  0  0  0  0  0  0
    3.6667  -12.1263    0.0000 H   0  0  0  0  0  0  0  0  0  0  0  0
    4.7223  -10.8792    0.0000 H   0  0  0  0  0  0  0  0  0  0  0  0
    3.1360   -9.1932    0.0000 H   0  0  0  0  0  0  0  0  0  0  0  0
    0.8981   -5.3753    0.0000 H   0  0  0  0  0  0  0  0  0  0  0  0
   -0.7917   -3.7914    0.0000 H   0  0  0  0  0  0  0  0  0  0  0  0
   -3.6730   -7.0738    0.0000 H   0  0  0  0  0  0  0  0  0  0  0  0
   -3.8773   -5.9442    0.0000 H   0  0  0  0  0  0  0  0  0  0  0  0
   -0.4956   -8.5656    0.0000 H   0  0  0  0  0  0  0  0  0  0  0  0
   -0.2523   -6.6526    0.0000 H   0  0  0  0  0  0  0  0  0  0  0  0
   -0.6711   -2.6732    0.0000 H   0  0  0  0  0  0  0  0  0  0  0  0
   -2.3829   -3.1564    0.0000 H   0  0  0  0  0  0  0  0  0  0  0  0
   -3.0469   -3.7901    0.0000 H   0  0  0  0  0  0  0  0  0  0  0  0
   -3.2653   -4.2696    0.0000 H   0  0  0  0  0  0  0  0  0  0  0  0
   -4.7785   -5.1171    0.0000 H   0  0  0  0  0  0  0  0  0  0  0  0
   -4.6559   -5.6450    0.0000 H   0  0  0  0  0  0  0  0  0  0  0  0
   -5.8247   -6.1134    0.0000 H   0  0  0  0  0  0  0  0  0  0  0  0
   -5.6954   -6.0376    0.0000 H   0  0  0  0  0  0  0  0  0  0  0  0
   -7.2205   -6.8635    0.0000 H   0  0  0  0  0  0  0  0  0  0  0  0
   -7.6635   -7.1488    0.0000 H   0  0  0  0  0  0  0  0  0  0  0  0
   -8.7357   -7.3480    0.0000 H   0  0  0  0  0  0  0  0  0  0  0  0
   -9.2354   -7.4234    0.0000 H   0  0  0  0  0  0  0  0  0  0  0  0
  -10.6585   -7.4139    0.0000 H   0  0  0  0  0  0  0  0  0  0  0  0
  -11.6402   -7.5231    0.0000 H   0  0  0  0  0  0  0  0  0  0  0  0
   -0.6770   -2.0842    0.0000 H   0  0  0  0  0  0  0  0  0  0  0  0
    0.0651   -0.6035    0.0000 H   0  0  0  0  0  0  0  0  0  0  0  0
   -1.8498    0.6275    0.0000 H   0  0  0  0  0  0  0  0  0  0  0  0
   -1.0195    1.4810    0.0000 H   0  0  0  0  0  0  0  0  0  0  0  0
   -1.1717    2.9757    0.0000 H   0  0  0  0  0  0  0  0  0  0  0  0
   -0.2823    3.5530    0.0000 H   0  0  0  0  0  0  0  0  0  0  0  0
   -0.8570    5.6894    0.0000 H   0  0  0  0  0  0  0  0  0  0  0  0
   -2.5159    5.4869    0.0000 H   0  0  0  0  0  0  0  0  0  0  0  0
   -2.3416    6.5823    0.0000 H   0  0  0  0  0  0  0  0  0  0  0  0
   -3.1949    7.2169    0.0000 H   0  0  0  0  0  0  0  0  0  0  0  0
   -5.7527    9.1858    0.0000 H   0  0  0  0  0  0  0  0  0  0  0  0
   -2.4969   10.5910    0.0000 H   0  0  0  0  0  0  0  0  0  0  0  0
   -1.5448    8.6361    0.0000 H   0  0  0  0  0  0  0  0  0  0  0  0
   -2.2977    7.7613    0.0000 H   0  0  0  0  0  0  0  0  0  0  0  0
   -5.1340   11.5605    0.0000 H   0  0  0  0  0  0  0  0  0  0  0  0
   -5.9623    9.9799    0.0000 H   0  0  0  0  0  0  0  0  0  0  0  0
   -3.4170   12.5811    0.0000 H   0  0  0  0  0  0  0  0  0  0  0  0
   -1.8212   11.4985    0.0000 H   0  0  0  0  0  0  0  0  0  0  0  0
   -2.7979    9.6562    0.0000 H   0  0  0  0  0  0  0  0  0  0  0  0
   -6.5248   10.3482    0.0000 H   0  0  0  0  0  0  0  0  0  0  0  0
   -7.3763   10.3826    0.0000 H   0  0  0  0  0  0  0  0  0  0  0  0
   -9.8225   12.1603    0.0000 H   0  0  0  0  0  0  0  0  0  0  0  0
  -10.4889   10.5050    0.0000 H   0  0  0  0  0  0  0  0  0  0  0  0
   -6.7273   12.7244    0.0000 H   0  0  0  0  0  0  0  0  0  0  0  0
   -6.8534   11.0954    0.0000 H   0  0  0  0  0  0  0  0  0  0  0  0
   -8.0077   15.9755    0.0000 H   0  0  0  0  0  0  0  0  0  0  0  0
   -6.0596   14.2564    0.0000 H   0  0  0  0  0  0  0  0  0  0  0  0
  -11.7669   11.0654    0.0000 H   0  0  0  0  0  0  0  0  0  0  0  0
  -12.6781   10.6840    0.0000 H   0  0  0  0  0  0  0  0  0  0  0  0
  -15.5209   10.8070    0.0000 H   0  0  0  0  0  0  0  0  0  0  0  0
  -15.1866    9.0542    0.0000 H   0  0  0  0  0  0  0  0  0  0  0  0
  -16.4199    8.9470    0.0000 H   0  0  0  0  0  0  0  0  0  0  0  0
  -16.9497    8.0744    0.0000 H   0  0  0  0  0  0  0  0  0  0  0  0
  -18.3541    5.2940    0.0000 H   0  0  0  0  0  0  0  0  0  0  0  0
  -20.6940    7.3565    0.0000 H   0  0  0  0  0  0  0  0  0  0  0  0
  -20.1667    8.4781    0.0000 H   0  0  0  0  0  0  0  0  0  0  0  0
  -18.8103    9.6376    0.0000 H   0  0  0  0  0  0  0  0  0  0  0  0
  -17.3809    8.8462    0.0000 H   0  0  0  0  0  0  0  0  0  0  0  0
  -19.3337    4.5370    0.0000 H   0  0  0  0  0  0  0  0  0  0  0  0
  -19.3077    3.5165    0.0000 H   0  0  0  0  0  0  0  0  0  0  0  0
  -20.7192    0.8422    0.0000 H   0  0  0  0  0  0  0  0  0  0  0  0
  -18.9859    0.4182    0.0000 H   0  0  0  0  0  0  0  0  0  0  0  0
  -22.1599    1.9486    0.0000 H   0  0  0  0  0  0  0  0  0  0  0  0
  -21.7180    3.8256    0.0000 H   0  0  0  0  0  0  0  0  0  0  0  0
  -20.0877    3.9326    0.0000 H   0  0  0  0  0  0  0  0  0  0  0  0
  -19.4007   -0.7483    0.0000 H   0  0  0  0  0  0  0  0  0  0  0  0
  -17.0393   -4.5522    0.0000 H   0  0  0  0  0  0  0  0  0  0  0  0
  -17.9385   -3.6708    0.0000 H   0  0  0  0  0  0  0  0  0  0  0  0
  -15.8993   -5.6618    0.0000 H   0  0  0  0  0  0  0  0  0  0  0  0
  -16.7701   -5.0052    0.0000 H   0  0  0  0  0  0  0  0  0  0  0  0
  -14.2078   -6.5784    0.0000 H   0  0  0  0  0  0  0  0  0  0  0  0
  -15.4857   -5.9521    0.0000 H   0  0  0  0  0  0  0  0  0  0  0  0
  -13.3779   -7.1141    0.0000 H   0  0  0  0  0  0  0  0  0  0  0  0
  -19.9690   -2.7748    0.0000 H   0  0  0  0  0  0  0  0  0  0  0  0
  -20.2202   -1.1604    0.0000 H   0  0  0  0  0  0  0  0  0  0  0  0
  -18.8475   -0.2742    0.0000 H   0  0  0  0  0  0  0  0  0  0  0  0
  -20.5090   -1.9555    0.0000 H   0  0  0  0  0  0  0  0  0  0  0  0
  -18.9740   -4.9795    0.0000 H   0  0  0  0  0  0  0  0  0  0  0  0
  -20.4056   -7.4080    0.0000 H   0  0  0  0  0  0  0  0  0  0  0  0
  -19.1527   -5.9421    0.0000 H   0  0  0  0  0  0  0  0  0  0  0  0
  -23.5667   -6.4152    0.0000 H   0  0  0  0  0  0  0  0  0  0  0  0
  -22.9797   -5.2385    0.0000 H   0  0  0  0  0  0  0  0  0  0  0  0
  -22.2402   -7.1779    0.0000 H   0  0  0  0  0  0  0  0  0  0  0  0
  -23.6889   -4.2884    0.0000 H   0  0  0  0  0  0  0  0  0  0  0  0
  -27.0452   -5.1794    0.0000 H   0  0  0  0  0  0  0  0  0  0  0  0
  -25.9968   -6.6234    0.0000 H   0  0  0  0  0  0  0  0  0  0  0  0
  -25.5185   -2.2387    0.0000 H   0  0  0  0  0  0  0  0  0  0  0  0
  -24.3020   -3.5441    0.0000 H   0  0  0  0  0  0  0  0  0  0  0  0
  -28.8491   -1.1825    0.0000 H   0  0  0  0  0  0  0  0  0  0  0  0
  -26.2865   -0.7545    0.0000 H   0  0  0  0  0  0  0  0  0  0  0  0
  1  2  1  0
  2  3  1  0
  3  4  2  0
  4  5  1  0
  5  6  2  0
  6  7  1  0
  7  8  2  0
  7  9  1  0
  9 10  1  0
 10 11  1  0
 11 12  2  0
  9 13  1  0
 13 14  1  0
 14 15  2  0
 15 16  1  0
 16 17  2  0
 17 18  1  0
 16 19  1  0
 14 20  1  0
 20 21  1  0
 21 22  2  0
 22 23  1  0
 23 24  2  0
 24 25  1  0
 25 26  2  0
 25 27  1  0
  1 28  2  0
  1 29  1  0
 29 30  1  0
 30 31  1  0
 31 32  1  0
 32 33  2  0
 32 34  1  0
 34 35  1  0
 35 36  1  0
 36 37  1  0
 35 38  1  0
 38 39  2  0
 38 40  1  0
 40 41  1  0
 41 42  1  0
 42 43  1  0
 43 44  1  0
 44 45  2  0
 44 46  1  0
 41 47  1  0
 47 48  2  0
 47 49  1  0
 49 50  1  0
 50 51  1  0
 51 52  1  0
 52 53  1  0
 53 54  2  0
 53 55  1  0
 50 56  1  0
 56 57  2  0
 56 58  1  0
 58 59  1  0
 59 60  1  0
 60 61  1  0
 61 62  1  0
 61 63  1  0
 59 64  1  0
 64 65  2  0
 64 66  1  0
 66 67  1  0
 67 68  1  0
 68 69  1  0
 67 70  1  0
 70 71  2  0
 70 72  1  0
 72 73  1  0
 73 74  1  0
 73 75  1  0
 75 76  2  0
 75 77  1  0
 77 78  1  0
 78 79  1  0
 79 80  1  0
 80 81  1  0
 81 82  2  0
 81 83  1  0
 78 84  1  0
 84 85  2  0
 84 86  1  0
 86 87  1  0
 87 88  1  0
 87 89  1  0
 89 90  2  0
 89 91  1  0
 91 92  1  0
 92 93  1  0
 93 94  1  0
 94 95  2  0
 95 96  1  0
 96 97  1  0
 97 98  2  0
 92 99  1  0
 99100  2  0
 99101  1  0
101102  1  0
102103  1  0
103104  1  0
104105  1  0
104106  2  0
102107  1  0
107108  2  0
107109  1  0
109110  1  0
110111  1  0
111112  1  0
112113  1  0
112114  1  0
110115  1  0
115116  2  0
115117  1  0
117118  1  0
118119  1  0
119120  1  0
118121  1  0
121122  2  0
121123  1  0
123124  1  0
124125  1  0
125126  1  0
125127  1  0
124128  1  0
128129  2  0
128130  1  0
130131  1  0
131132  1  0
132133  1  0
133134  1  0
133135  1  0
131136  1  0
136137  2  0
136138  1  0
138139  1  0
139140  1  0
140141  1  0
141142  1  0
141143  1  0
139144  1  0
144145  2  0
144146  1  0
146147  1  0
147148  1  0
148149  1  0
149150  1  0
150151  2  0
150152  1  0
147153  1  0
153154  2  0
153155  1  0
156155  1  6
156157  1  0
157158  1  0
158159  1  0
159160  1  0
160161  1  0
161162  1  0
162163  1  0
156164  1  0
156165  1  0
165166  2  0
165167  1  0
167168  1  0
168169  1  0
168170  1  0
170171  2  0
170172  1  0
172173  1  0
173174  1  0
174175  1  0
174176  1  0
176177  1  0
173178  1  0
178179  2  0
178180  1  0
180181  1  0
181182  1  0
182183  1  0
183184  1  0
184185  1  0
184186  2  0
181187  1  0
187188  2  0
187189  1  0
189190  1  0
190191  1  0
191192  1  0
192193  2  0
192194  1  0
190195  1  0
195196  2  0
195197  1  0
197198  1  0
198199  1  0
199200  1  0
199201  1  0
198202  1  0
202203  2  0
202204  1  0
204205  1  0
205206  1  0
206207  1  0
205208  1  0
208209  2  0
208210  1  0
210211  1  0
211212  1  0
212213  1  0
213214  1  0
214215  1  0
211216  1  0
211217  1  1
217218  2  0
217219  1  0
219220  1  0
220221  1  0
221222  1  0
222223  1  0
223224  2  0
223225  1  0
220226  1  0
226227  2  0
226228  1  0
228229  1  0
229230  1  0
230231  1  0
231232  1  0
232233  1  0
232234  2  0
229235  1  0
235236  2  0
235237  1  0
  8  3  1  0
 98 94  1  0
 11  6  1  0
 18 13  2  0
163215  2  0
 22  9  1  0
 26 21  1  0
  2238  1  0
  4239  1  0
  5240  1  0
  8241  1  0
 15242  1  0
 17243  1  0
 18244  1  0
 19245  1  0
 23246  1  0
 24247  1  0
 26248  1  0
 27249  1  0
 29250  1  0
 30251  1  0
 30252  1  0
 31253  1  0
 31254  1  0
 34255  1  0
 35256  1  6
 36257  1  0
 36258  1  0
 37259  1  0
 40260  1  0
 41261  1  1
 42262  1  0
 42263  1  0
 43264  1  0
 43265  1  0
 49266  1  0
 50267  1  1
 51268  1  0
 51269  1  0
 52270  1  0
 52271  1  0
 58272  1  0
 59273  1  1
 60274  1  0
 60275  1  0
 61276  1  0
 62277  1  0
 62278  1  0
 62279  1  0
 63280  1  0
 63281  1  0
 63282  1  0
 66283  1  0
 67284  1  1
 68285  1  0
 68286  1  0
 69287  1  0
 69288  1  0
 69289  1  0
 72290  1  0
 73291  1  1
 74292  1  0
 74293  1  0
 74294  1  0
 77295  1  0
 78296  1  1
 79297  1  0
 79298  1  0
 80299  1  0
 80300  1  0
 86301  1  0
 87302  1  1
 88303  1  0
 88304  1  0
 88305  1  0
 91306  1  0
 92307  1  1
 93308  1  0
 93309  1  0
 95310  1  0
 96311  1  0
 97312  1  0
101313  1  0
102314  1  1
103315  1  0
103316  1  0
105317  1  0
105318  1  0
109319  1  0
110320  1  1
111321  1  0
111322  1  0
112323  1  0
113324  1  0
113325  1  0
113326  1  0
114327  1  0
114328  1  0
114329  1  0
117330  1  0
118331  1  1
119332  1  0
119333  1  0
120334  1  0
123335  1  0
124336  1  1
125337  1  6
126338  1  0
127339  1  0
127340  1  0
127341  1  0
130342  1  0
131343  1  1
132344  1  0
132345  1  0
133346  1  0
134347  1  0
134348  1  0
134349  1  0
135350  1  0
135351  1  0
135352  1  0
138353  1  0
139354  1  1
140355  1  0
140356  1  0
141357  1  0
142358  1  0
142359  1  0
142360  1  0
143361  1  0
143362  1  0
143363  1  0
146364  1  0
147365  1  1
148366  1  0
148367  1  0
149368  1  0
149369  1  0
155370  1  0
157371  1  0
157372  1  0
158373  1  0
158374  1  0
159375  1  0
159376  1  0
160377  1  0
160378  1  0
161379  1  0
161380  1  0
162381  1  0
162382  1  0
163383  1  0
164384  1  0
164385  1  0
164386  1  0
167387  1  0
168388  1  6
169389  1  0
169390  1  0
169391  1  0
172392  1  0
173393  1  6
174394  1  1
175395  1  0
175396  1  0
175397  1  0
176398  1  0
176399  1  0
177400  1  0
177401  1  0
177402  1  0
180403  1  0
181404  1  6
182405  1  0
182406  1  0
183407  1  0
183408  1  0
185409  1  0
185410  1  0
189411  1  0
190412  1  6
191413  1  0
191414  1  0
197415  1  0
198416  1  6
199417  1  1
200418  1  0
201419  1  0
201420  1  0
201421  1  0
204422  1  0
205423  1  6
206424  1  0
206425  1  0
207426  1  0
207427  1  0
207428  1  0
210429  1  0
212430  1  0
212431  1  0
213432  1  0
213433  1  0
214434  1  0
214435  1  0
215436  1  0
216437  1  0
216438  1  0
216439  1  0
219440  1  0
220441  1  1
221442  1  0
221443  1  0
222444  1  0
222445  1  0
228446  1  0
229447  1  6
230448  1  0
230449  1  0
231450  1  0
231451  1  0
233452  1  0
233453  1  0
M  CHG  7  46  -1  55  -1  83  -1 152  -1 194  -1 225  -1 237  -1
M  END
