
     RDKit          2D

324332  0  0  0  0  0  0  0  0999 V2000
   15.3654   -3.4055    0.0000 C   0  0  0  0  0  0  0  0  0  0  0  0
   16.6891   -4.1111    0.0000 N   0  0  0  0  0  0  0  0  0  0  0  0
   16.7399   -5.6102    0.0000 C   0  0  0  0  0  0  0  0  0  0  0  0
   15.4670   -6.4038    0.0000 C   0  0  0  0  0  0  0  0  0  0  0  0
   15.5178   -7.9029    0.0000 C   0  0  0  0  0  0  0  0  0  0  0  0
   16.8415   -8.6085    0.0000 C   0  0  0  0  0  0  0  0  0  0  0  0
   18.1144   -7.8149    0.0000 C   0  0  0  0  0  0  0  0  0  0  0  0
   18.0636   -6.3158    0.0000 C   0  0  0  0  0  0  0  0  0  0  0  0
   19.2625   -8.7803    0.0000 C   0  0  0  0  0  0  0  0  0  0  0  0
   18.6992  -10.1705    0.0000 O   0  0  0  0  0  0  0  0  0  0  0  0
   17.2029  -10.0643    0.0000 C   0  0  0  0  0  0  0  0  0  0  0  0
   16.2376  -11.2124    0.0000 O   0  0  0  0  0  0  0  0  0  0  0  0
   20.3034   -9.8603    0.0000 C   0  0  0  0  0  0  0  0  0  0  0  0
   21.7592   -9.4989    0.0000 C   0  0  0  0  0  0  0  0  0  0  0  0
   22.8001  -10.5790    0.0000 C   0  0  0  0  0  0  0  0  0  0  0  0
   22.3852  -12.0205    0.0000 C   0  0  0  0  0  0  0  0  0  0  0  0
   20.9294  -12.3819    0.0000 C   0  0  0  0  0  0  0  0  0  0  0  0
   19.8885  -11.3018    0.0000 C   0  0  0  0  0  0  0  0  0  0  0  0
   23.4261  -13.1005    0.0000 O   0  0  0  0  0  0  0  0  0  0  0  0
   22.1741   -8.0575    0.0000 O   0  0  0  0  0  0  0  0  0  0  0  0
   21.1332   -6.9774    0.0000 C   0  0  0  0  0  0  0  0  0  0  0  0
   19.6774   -7.3388    0.0000 C   0  0  0  0  0  0  0  0  0  0  0  0
   19.3159   -6.0901    0.0000 C   0  0  0  0  0  0  0  0  0  0  0  0
   19.5372   -5.3213    0.0000 C   0  0  0  0  0  0  0  0  0  0  0  0
   20.3136   -5.1285    0.0000 C   0  0  0  0  0  0  0  0  0  0  0  0
   20.8688   -5.7046    0.0000 C   0  0  0  0  0  0  0  0  0  0  0  0
   20.9222   -3.0144    0.0000 O   0  0  0  0  0  0  0  0  0  0  0  0
   14.0925   -4.1991    0.0000 S   0  0  0  0  0  0  0  0  0  0  0  0
   15.3145   -1.9064    0.0000 N   0  0  0  0  0  0  0  0  0  0  0  0
   13.9908   -1.2008    0.0000 C   0  0  0  0  0  0  0  0  0  0  0  0
   13.9400    0.2983    0.0000 C   0  0  0  0  0  0  0  0  0  0  0  0
   12.6163    1.0039    0.0000 C   0  0  0  0  0  0  0  0  0  0  0  0
   11.7125   -0.1933    0.0000 O   0  0  0  0  0  0  0  0  0  0  0  0
   12.5655    2.5030    0.0000 N   0  0  0  0  0  0  0  0  0  0  0  0
   11.2418    3.2085    0.0000 C   0  0  0  0  0  0  0  0  0  0  0  0
   11.1431    1.7118    0.0000 C   0  0  0  0  0  0  0  0  0  0  0  0
   10.6076    0.3106    0.0000 C   0  0  0  0  0  0  0  0  0  0  0  0
    9.6829   -0.8704    0.0000 C   0  0  0  0  0  0  0  0  0  0  0  0
    8.4512   -1.7265    0.0000 C   0  0  0  0  0  0  0  0  0  0  0  0
   12.4293    4.1249    0.0000 C   0  0  0  0  0  0  0  0  0  0  0  0
   10.8949    4.6679    0.0000 C   0  0  0  0  0  0  0  0  0  0  0  0
   12.2863    5.2284    0.0000 O   0  0  0  0  0  0  0  0  0  0  0  0
   10.1333    5.9602    0.0000 N   0  0  0  0  0  0  0  0  0  0  0  0
    9.0246    6.9705    0.0000 C   0  0  0  0  0  0  0  0  0  0  0  0
    9.0486    8.4703    0.0000 C   0  0  0  0  0  0  0  0  0  0  0  0
   10.3595    9.1995    0.0000 C   0  0  0  0  0  0  0  0  0  0  0  0
   10.3834   10.6993    0.0000 C   0  0  0  0  0  0  0  0  0  0  0  0
   11.6943   11.4284    0.0000 N   0  0  0  0  0  0  0  0  0  0  0  0
   11.7182   12.9283    0.0000 C   0  0  0  0  0  0  0  0  0  0  0  0
   13.0291   13.6574    0.0000 N   0  0  0  0  0  0  0  0  0  0  0  0
   10.4314   13.6989    0.0000 N   0  0  0  0  0  0  0  0  0  0  0  0
    7.6674    7.6092    0.0000 C   0  0  0  0  0  0  0  0  0  0  0  0
    8.0967    9.0465    0.0000 O   0  0  0  0  0  0  0  0  0  0  0  0
    6.1822    7.8195    0.0000 N   0  0  0  0  0  0  0  0  0  0  0  0
    4.7010    7.5827    0.0000 C   0  0  0  0  0  0  0  0  0  0  0  0
    3.5434    8.5365    0.0000 C   0  0  0  0  0  0  0  0  0  0  0  0
    3.7906   10.0160    0.0000 C   0  0  0  0  0  0  0  0  0  0  0  0
    2.6330   10.9698    0.0000 C   0  0  0  0  0  0  0  0  0  0  0  0
    2.8802   12.4493    0.0000 N   0  0  0  0  0  0  0  0  0  0  0  0
    1.7225   13.4032    0.0000 C   0  0  0  0  0  0  0  0  0  0  0  0
    1.9698   14.8827    0.0000 N   0  0  0  0  0  0  0  0  0  0  0  0
    0.3176   12.8776    0.0000 N   0  0  0  0  0  0  0  0  0  0  0  0
    3.3555    6.9198    0.0000 C   0  0  0  0  0  0  0  0  0  0  0  0
    2.4994    8.1515    0.0000 O   0  0  0  0  0  0  0  0  0  0  0  0
    2.2651    5.8897    0.0000 N   0  0  0  0  0  0  0  0  0  0  0  0
    1.5267    4.5840    0.0000 C   0  0  0  0  0  0  0  0  0  0  0  0
    0.0592    4.2736    0.0000 C   0  0  0  0  0  0  0  0  0  0  0  0
   -0.9434    5.3894    0.0000 C   0  0  0  0  0  0  0  0  0  0  0  0
   -2.4246    5.6256    0.0000 N   0  0  0  0  0  0  0  0  0  0  0  0
   -0.3080    6.7482    0.0000 O   0  0  0  0  0  0  0  0  0  0  0  0
    1.2061    3.1187    0.0000 C   0  0  0  0  0  0  0  0  0  0  0  0
    0.4019    3.4899    0.0000 O   0  0  0  0  0  0  0  0  0  0  0  0
    1.3315    1.6239    0.0000 N   0  0  0  0  0  0  0  0  0  0  0  0
    1.8920    0.2326    0.0000 C   0  0  0  0  0  0  0  0  0  0  0  0
    2.8377   -0.9317    0.0000 C   0  0  0  0  0  0  0  0  0  0  0  0
    4.0846   -1.7656    0.0000 C   0  0  0  0  0  0  0  0  0  0  0  0
    5.5219   -2.1949    0.0000 C   0  0  0  0  0  0  0  0  0  0  0  0
    7.0218   -2.1814    0.0000 C   0  0  0  0  0  0  0  0  0  0  0  0
    1.8679   -1.3611    0.0000 C   0  0  0  0  0  0  0  0  0  0  0  0
    2.2021   -2.6865    0.0000 C   0  0  0  0  0  0  0  0  0  0  0  0
    2.2794   -4.0513    0.0000 C   0  0  0  0  0  0  0  0  0  0  0  0
    2.0969   -5.4060    0.0000 C   0  0  0  0  0  0  0  0  0  0  0  0
    0.4862    0.9835    0.0000 C   0  0  0  0  0  0  0  0  0  0  0  0
    2.1358    2.4390    0.0000 O   0  0  0  0  0  0  0  0  0  0  0  0
   -0.5115    1.9179    0.0000 N   0  0  0  0  0  0  0  0  0  0  0  0
   -1.6680    2.6465    0.0000 C   0  0  0  0  0  0  0  0  0  0  0  0
   -1.4851    4.7657    0.0000 C   0  0  0  0  0  0  0  0  0  0  0  0
   -2.8452    5.3983    0.0000 C   0  0  0  0  0  0  0  0  0  0  0  0
   -2.9775    6.8924    0.0000 C   0  0  0  0  0  0  0  0  0  0  0  0
   -4.3376    7.5250    0.0000 N   0  0  0  0  0  0  0  0  0  0  0  0
   -4.4699    9.0191    0.0000 C   0  0  0  0  0  0  0  0  0  0  0  0
   -5.6365    9.9620    0.0000 N   0  0  0  0  0  0  0  0  0  0  0  0
   -3.2420    9.8807    0.0000 N   0  0  0  0  0  0  0  0  0  0  0  0
   -2.9415    3.1432    0.0000 C   0  0  0  0  0  0  0  0  0  0  0  0
   -2.8851    5.3105    0.0000 O   0  0  0  0  0  0  0  0  0  0  0  0
   -4.2860    3.3899    0.0000 N   0  0  0  0  0  0  0  0  0  0  0  0
   -5.6529    3.3776    0.0000 C   0  0  0  0  0  0  0  0  0  0  0  0
   -6.6447    5.2593    0.0000 C   0  0  0  0  0  0  0  0  0  0  0  0
   -6.0776    6.6479    0.0000 C   0  0  0  0  0  0  0  0  0  0  0  0
   -6.9967    7.8334    0.0000 C   0  0  0  0  0  0  0  0  0  0  0  0
   -6.4296    9.2221    0.0000 N   0  0  0  0  0  0  0  0  0  0  0  0
   -7.3487   10.4075    0.0000 C   0  0  0  0  0  0  0  0  0  0  0  0
   -6.7816   11.7962    0.0000 N   0  0  0  0  0  0  0  0  0  0  0  0
   -8.8348   10.2043    0.0000 N   0  0  0  0  0  0  0  0  0  0  0  0
   -6.9927    3.1069    0.0000 C   0  0  0  0  0  0  0  0  0  0  0  0
   -7.8032    5.1484    0.0000 O   0  0  0  0  0  0  0  0  0  0  0  0
   -8.2572    2.5875    0.0000 N   0  0  0  0  0  0  0  0  0  0  0  0
   -9.4004    1.8383    0.0000 C   0  0  0  0  0  0  0  0  0  0  0  0
  -11.2521    2.8850    0.0000 C   0  0  0  0  0  0  0  0  0  0  0  0
  -11.5258    4.3598    0.0000 C   0  0  0  0  0  0  0  0  0  0  0  0
  -12.9399    4.8602    0.0000 C   0  0  0  0  0  0  0  0  0  0  0  0
  -13.2136    6.3350    0.0000 N   0  0  0  0  0  0  0  0  0  0  0  0
  -14.6277    6.8354    0.0000 C   0  0  0  0  0  0  0  0  0  0  0  0
  -14.9013    8.3102    0.0000 N   0  0  0  0  0  0  0  0  0  0  0  0
  -15.7680    5.8610    0.0000 N   0  0  0  0  0  0  0  0  0  0  0  0
  -10.3812    0.8861    0.0000 C   0  0  0  0  0  0  0  0  0  0  0  0
  -12.1667    2.1654    0.0000 O   0  0  0  0  0  0  0  0  0  0  0  0
  -11.1641   -0.2344    0.0000 N   0  0  0  0  0  0  0  0  0  0  0  0
  -11.7208   -1.4828    0.0000 C   0  0  0  0  0  0  0  0  0  0  0  0
  -13.8444   -1.6033    0.0000 C   0  0  0  0  0  0  0  0  0  0  0  0
  -14.8720   -0.5106    0.0000 C   0  0  0  0  0  0  0  0  0  0  0  0
  -14.5920    0.9630    0.0000 C   0  0  0  0  0  0  0  0  0  0  0  0
  -15.9070    1.6847    0.0000 N   0  0  0  0  0  0  0  0  0  0  0  0
  -16.9997    0.6571    0.0000 C   0  0  0  0  0  0  0  0  0  0  0  0
  -18.4945    0.7816    0.0000 C   0  0  0  0  0  0  0  0  0  0  0  0
  -19.3497   -0.4507    0.0000 C   0  0  0  0  0  0  0  0  0  0  0  0
  -18.7101   -1.8075    0.0000 C   0  0  0  0  0  0  0  0  0  0  0  0
  -17.2153   -1.9320    0.0000 C   0  0  0  0  0  0  0  0  0  0  0  0
  -16.3601   -0.6997    0.0000 C   0  0  0  0  0  0  0  0  0  0  0  0
  -12.0311   -2.8140    0.0000 C   0  0  0  0  0  0  0  0  0  0  0  0
  -14.2248   -2.7031    0.0000 O   0  0  0  0  0  0  0  0  0  0  0  0
  -12.0839   -4.1799    0.0000 N   0  0  0  0  0  0  0  0  0  0  0  0
  -11.8773   -5.5311    0.0000 C   0  0  0  0  0  0  0  0  0  0  0  0
  -13.5987   -6.7807    0.0000 C   0  0  0  0  0  0  0  0  0  0  0  0
  -15.0539   -6.4170    0.0000 C   0  0  0  0  0  0  0  0  0  0  0  0
  -16.0965   -7.4954    0.0000 C   0  0  0  0  0  0  0  0  0  0  0  0
  -17.5517   -7.1317    0.0000 N   0  0  0  0  0  0  0  0  0  0  0  0
  -18.5943   -8.2101    0.0000 C   0  0  0  0  0  0  0  0  0  0  0  0
  -20.0496   -7.8464    0.0000 N   0  0  0  0  0  0  0  0  0  0  0  0
  -18.1817   -9.6522    0.0000 N   0  0  0  0  0  0  0  0  0  0  0  0
  -11.4187   -6.8188    0.0000 C   0  0  0  0  0  0  0  0  0  0  0  0
  -13.3240   -7.9115    0.0000 O   0  0  0  0  0  0  0  0  0  0  0  0
  -10.7246   -7.9964    0.0000 N   0  0  0  0  0  0  0  0  0  0  0  0
   -9.8203   -9.0214    0.0000 C   0  0  0  0  0  0  0  0  0  0  0  0
  -10.5928  -11.0033    0.0000 C   0  0  0  0  0  0  0  0  0  0  0  0
  -12.0137  -11.4840    0.0000 C   0  0  0  0  0  0  0  0  0  0  0  0
  -12.3077  -12.9549    0.0000 C   0  0  0  0  0  0  0  0  0  0  0  0
  -13.7286  -13.4357    0.0000 O   0  0  0  0  0  0  0  0  0  0  0  0
  -11.1809  -13.9450    0.0000 O   0  0  0  0  0  0  0  0  0  0  0  0
   -8.7383   -9.8568    0.0000 C   0  0  0  0  0  0  0  0  0  0  0  0
   -9.7504  -11.8061    0.0000 O   0  0  0  0  0  0  0  0  0  0  0  0
   -7.5178  -10.4722    0.0000 N   0  0  0  0  0  0  0  0  0  0  0  0
   -6.2028  -10.8456    0.0000 C   0  0  0  0  0  0  0  0  0  0  0  0
   -4.8410  -10.9633    0.0000 C   0  0  0  0  0  0  0  0  0  0  0  0
   -3.4815  -10.8212    0.0000 C   0  0  0  0  0  0  0  0  0  0  0  0
   -2.1734  -10.4243    0.0000 C   0  0  0  0  0  0  0  0  0  0  0  0
   -0.9641   -9.7871    0.0000 C   0  0  0  0  0  0  0  0  0  0  0  0
    0.1028   -8.9326    0.0000 C   0  0  0  0  0  0  0  0  0  0  0  0
    0.9886   -7.8915    0.0000 C   0  0  0  0  0  0  0  0  0  0  0  0
    1.6615   -6.7017    0.0000 C   0  0  0  0  0  0  0  0  0  0  0  0
   -7.3370  -12.6450    0.0000 C   0  0  0  0  0  0  0  0  0  0  0  0
   -5.7813  -12.9304    0.0000 C   0  0  0  0  0  0  0  0  0  0  0  0
   -6.5667  -14.2083    0.0000 O   0  0  0  0  0  0  0  0  0  0  0  0
   -4.3963  -13.5064    0.0000 O   0  0  0  0  0  0  0  0  0  0  0  0
   17.8557   -3.1683    0.0000 H   0  0  0  0  0  0  0  0  0  0  0  0
   14.1433   -5.6983    0.0000 H   0  0  0  0  0  0  0  0  0  0  0  0
   14.2450   -8.6965    0.0000 H   0  0  0  0  0  0  0  0  0  0  0  0
   19.1066   -5.2378    0.0000 H   0  0  0  0  0  0  0  0  0  0  0  0
   24.2559  -10.2176    0.0000 H   0  0  0  0  0  0  0  0  0  0  0  0
   20.5144  -13.8233    0.0000 H   0  0  0  0  0  0  0  0  0  0  0  0
   18.4327  -11.6632    0.0000 H   0  0  0  0  0  0  0  0  0  0  0  0
   23.0111  -14.5420    0.0000 H   0  0  0  0  0  0  0  0  0  0  0  0
   17.1807   -6.6201    0.0000 H   0  0  0  0  0  0  0  0  0  0  0  0
   18.1500   -3.6184    0.0000 H   0  0  0  0  0  0  0  0  0  0  0  0
   23.0040   -5.1745    0.0000 H   0  0  0  0  0  0  0  0  0  0  0  0
   22.3780   -2.6530    0.0000 H   0  0  0  0  0  0  0  0  0  0  0  0
   16.5874   -1.1128    0.0000 H   0  0  0  0  0  0  0  0  0  0  0  0
   13.5259   -2.6270    0.0000 H   0  0  0  0  0  0  0  0  0  0  0  0
   12.5056   -0.9906    0.0000 H   0  0  0  0  0  0  0  0  0  0  0  0
   15.4252    0.0880    0.0000 H   0  0  0  0  0  0  0  0  0  0  0  0
   14.4050    1.7244    0.0000 H   0  0  0  0  0  0  0  0  0  0  0  0
   13.9256    3.1355    0.0000 H   0  0  0  0  0  0  0  0  0  0  0  0
   12.6334    1.8819    0.0000 H   0  0  0  0  0  0  0  0  0  0  0  0
   12.0624    0.5265    0.0000 H   0  0  0  0  0  0  0  0  0  0  0  0
   11.9711   -0.3146    0.0000 H   0  0  0  0  0  0  0  0  0  0  0  0
   11.4606   -0.9232    0.0000 H   0  0  0  0  0  0  0  0  0  0  0  0
   11.0854   -1.4025    0.0000 H   0  0  0  0  0  0  0  0  0  0  0  0
    9.9566   -2.3453    0.0000 H   0  0  0  0  0  0  0  0  0  0  0  0
    9.1141   -3.0721    0.0000 H   0  0  0  0  0  0  0  0  0  0  0  0
   13.8759    3.7280    0.0000 H   0  0  0  0  0  0  0  0  0  0  0  0
   13.2318    5.3922    0.0000 H   0  0  0  0  0  0  0  0  0  0  0  0
   11.5981    5.3735    0.0000 H   0  0  0  0  0  0  0  0  0  0  0  0
   11.2976    6.9059    0.0000 H   0  0  0  0  0  0  0  0  0  0  0  0
   10.4638    7.3933    0.0000 H   0  0  0  0  0  0  0  0  0  0  0  0
    8.3890    9.8175    0.0000 H   0  0  0  0  0  0  0  0  0  0  0  0
    7.5541    8.5989    0.0000 H   0  0  0  0  0  0  0  0  0  0  0  0
   11.8406    9.4363    0.0000 H   0  0  0  0  0  0  0  0  0  0  0  0
   11.0190    7.8523    0.0000 H   0  0  0  0  0  0  0  0  0  0  0  0
    9.8930   12.1169    0.0000 H   0  0  0  0  0  0  0  0  0  0  0  0
    8.8844   10.6448    0.0000 H   0  0  0  0  0  0  0  0  0  0  0  0
   12.9812   10.6578    0.0000 H   0  0  0  0  0  0  0  0  0  0  0  0
   13.0531   15.1572    0.0000 H   0  0  0  0  0  0  0  0  0  0  0  0
   14.3160   12.8867    0.0000 H   0  0  0  0  0  0  0  0  0  0  0  0
   10.4553   15.1987    0.0000 H   0  0  0  0  0  0  0  0  0  0  0  0
    9.1205   12.9698    0.0000 H   0  0  0  0  0  0  0  0  0  0  0  0
    6.1688    9.3194    0.0000 H   0  0  0  0  0  0  0  0  0  0  0  0
    5.2679    8.9714    0.0000 H   0  0  0  0  0  0  0  0  0  0  0  0
    2.0789    8.8608    0.0000 H   0  0  0  0  0  0  0  0  0  0  0  0
    2.5110    7.4483    0.0000 H   0  0  0  0  0  0  0  0  0  0  0  0
    4.5289   11.3217    0.0000 H   0  0  0  0  0  0  0  0  0  0  0  0
    5.2551    9.6917    0.0000 H   0  0  0  0  0  0  0  0  0  0  0  0
    1.2189   11.4702    0.0000 H   0  0  0  0  0  0  0  0  0  0  0  0
    1.7410    9.7639    0.0000 H   0  0  0  0  0  0  0  0  0  0  0  0
    4.2851   12.9750    0.0000 H   0  0  0  0  0  0  0  0  0  0  0  0
    0.8121   15.8365    0.0000 H   0  0  0  0  0  0  0  0  0  0  0  0
    3.3747   15.4083    0.0000 H   0  0  0  0  0  0  0  0  0  0  0  0
   -0.8400   13.8314    0.0000 H   0  0  0  0  0  0  0  0  0  0  0  0
    0.0704   11.3981    0.0000 H   0  0  0  0  0  0  0  0  0  0  0  0
    1.0840    6.8144    0.0000 H   0  0  0  0  0  0  0  0  0  0  0  0
    0.6402    5.7940    0.0000 H   0  0  0  0  0  0  0  0  0  0  0  0
   -1.3679    3.8116    0.0000 H   0  0  0  0  0  0  0  0  0  0  0  0
    0.0837    2.7738    0.0000 H   0  0  0  0  0  0  0  0  0  0  0  0
   -3.4135    6.1947    0.0000 H   0  0  0  0  0  0  0  0  0  0  0  0
   -3.1130    3.7226    0.0000 H   0  0  0  0  0  0  0  0  0  0  0  0
   -0.1278    1.2771    0.0000 H   0  0  0  0  0  0  0  0  0  0  0  0
    2.7727   -2.4303    0.0000 H   0  0  0  0  0  0  0  0  0  0  0  0
    1.3875   -1.3149    0.0000 H   0  0  0  0  0  0  0  0  0  0  0  0
    4.4642   -3.2168    0.0000 H   0  0  0  0  0  0  0  0  0  0  0  0
    3.1808   -2.9627    0.0000 H   0  0  0  0  0  0  0  0  0  0  0  0
    6.1510   -3.5566    0.0000 H   0  0  0  0  0  0  0  0  0  0  0  0
    5.0110   -3.6052    0.0000 H   0  0  0  0  0  0  0  0  0  0  0  0
    7.2587   -3.6626    0.0000 H   0  0  0  0  0  0  0  0  0  0  0  0
    3.4627    0.0464    0.0000 H   0  0  0  0  0  0  0  0  0  0  0  0
    3.9438   -1.6199    0.0000 H   0  0  0  0  0  0  0  0  0  0  0  0
    4.3079   -2.0798    0.0000 H   0  0  0  0  0  0  0  0  0  0  0  0
    4.1914   -3.3336    0.0000 H   0  0  0  0  0  0  0  0  0  0  0  0
    4.4620   -3.8540    0.0000 H   0  0  0  0  0  0  0  0  0  0  0  0
    4.2219   -4.9178    0.0000 H   0  0  0  0  0  0  0  0  0  0  0  0
    4.2395   -5.9055    0.0000 H   0  0  0  0  0  0  0  0  0  0  0  0
    0.6813    3.7622    0.0000 H   0  0  0  0  0  0  0  0  0  0  0  0
   -0.3001    4.3401    0.0000 H   0  0  0  0  0  0  0  0  0  0  0  0
   -1.0984    6.2150    0.0000 H   0  0  0  0  0  0  0  0  0  0  0  0
   -0.0176    4.4553    0.0000 H   0  0  0  0  0  0  0  0  0  0  0  0
   -4.3128    5.7087    0.0000 H   0  0  0  0  0  0  0  0  0  0  0  0
   -3.7258    4.1839    0.0000 H   0  0  0  0  0  0  0  0  0  0  0  0
   -2.5908    8.3417    0.0000 H   0  0  0  0  0  0  0  0  0  0  0  0
   -1.4785    6.9464    0.0000 H   0  0  0  0  0  0  0  0  0  0  0  0
   -5.7375    6.9861    0.0000 H   0  0  0  0  0  0  0  0  0  0  0  0
   -5.9622   11.1458    0.0000 H   0  0  0  0  0  0  0  0  0  0  0  0
   -7.2992    9.1688    0.0000 H   0  0  0  0  0  0  0  0  0  0  0  0
   -3.3743   11.3749    0.0000 H   0  0  0  0  0  0  0  0  0  0  0  0
   -1.8819    9.2482    0.0000 H   0  0  0  0  0  0  0  0  0  0  0  0
   -4.0965    5.5817    0.0000 H   0  0  0  0  0  0  0  0  0  0  0  0
   -5.0716    5.4237    0.0000 H   0  0  0  0  0  0  0  0  0  0  0  0
   -7.9138    6.0589    0.0000 H   0  0  0  0  0  0  0  0  0  0  0  0
   -7.8915    4.4252    0.0000 H   0  0  0  0  0  0  0  0  0  0  0  0
   -5.3686    7.9698    0.0000 H   0  0  0  0  0  0  0  0  0  0  0  0
   -4.7205    6.0090    0.0000 H   0  0  0  0  0  0  0  0  0  0  0  0
   -8.2658    8.6330    0.0000 H   0  0  0  0  0  0  0  0  0  0  0  0
   -8.1325    6.8536    0.0000 H   0  0  0  0  0  0  0  0  0  0  0  0
   -5.0368    9.7789    0.0000 H   0  0  0  0  0  0  0  0  0  0  0  0
   -7.7006   12.9817    0.0000 H   0  0  0  0  0  0  0  0  0  0  0  0
   -5.2954   11.9994    0.0000 H   0  0  0  0  0  0  0  0  0  0  0  0
   -9.7539   11.3898    0.0000 H   0  0  0  0  0  0  0  0  0  0  0  0
   -9.4019    8.8157    0.0000 H   0  0  0  0  0  0  0  0  0  0  0  0
   -9.1157    4.6092    0.0000 H   0  0  0  0  0  0  0  0  0  0  0  0
   -9.8348    3.8846    0.0000 H   0  0  0  0  0  0  0  0  0  0  0  0
  -12.7521    2.8715    0.0000 H   0  0  0  0  0  0  0  0  0  0  0  0
  -11.8500    1.5093    0.0000 H   0  0  0  0  0  0  0  0  0  0  0  0
  -11.2786    5.8393    0.0000 H   0  0  0  0  0  0  0  0  0  0  0  0
  -10.0737    4.7358    0.0000 H   0  0  0  0  0  0  0  0  0  0  0  0
  -14.4398    4.8468    0.0000 H   0  0  0  0  0  0  0  0  0  0  0  0
  -13.3656    3.4219    0.0000 H   0  0  0  0  0  0  0  0  0  0  0  0
  -12.0732    7.3094    0.0000 H   0  0  0  0  0  0  0  0  0  0  0  0
  -16.3154    8.8106    0.0000 H   0  0  0  0  0  0  0  0  0  0  0  0
  -13.7610    9.2846    0.0000 H   0  0  0  0  0  0  0  0  0  0  0  0
  -17.1821    6.3613    0.0000 H   0  0  0  0  0  0  0  0  0  0  0  0
  -15.4943    4.3861    0.0000 H   0  0  0  0  0  0  0  0  0  0  0  0
  -12.9794    1.0022    0.0000 H   0  0  0  0  0  0  0  0  0  0  0  0
  -13.3405   -0.1041    0.0000 H   0  0  0  0  0  0  0  0  0  0  0  0
  -15.1899   -2.2665    0.0000 H   0  0  0  0  0  0  0  0  0  0  0  0
  -13.6036   -3.0839    0.0000 H   0  0  0  0  0  0  0  0  0  0  0  0
  -13.3233    1.7633    0.0000 H   0  0  0  0  0  0  0  0  0  0  0  0
  -16.0960    3.1728    0.0000 H   0  0  0  0  0  0  0  0  0  0  0  0
  -19.1341    2.1384    0.0000 H   0  0  0  0  0  0  0  0  0  0  0  0
  -20.8445   -0.3263    0.0000 H   0  0  0  0  0  0  0  0  0  0  0  0
  -19.5653   -3.0399    0.0000 H   0  0  0  0  0  0  0  0  0  0  0  0
  -16.5756   -3.2888    0.0000 H   0  0  0  0  0  0  0  0  0  0  0  0
  -14.2796   -4.1211    0.0000 H   0  0  0  0  0  0  0  0  0  0  0  0
  -13.9192   -5.0762    0.0000 H   0  0  0  0  0  0  0  0  0  0  0  0
  -14.2095   -8.1506    0.0000 H   0  0  0  0  0  0  0  0  0  0  0  0
  -12.5957   -7.8960    0.0000 H   0  0  0  0  0  0  0  0  0  0  0  0
  -16.2970   -5.5775    0.0000 H   0  0  0  0  0  0  0  0  0  0  0  0
  -14.7927   -4.9399    0.0000 H   0  0  0  0  0  0  0  0  0  0  0  0
  -16.7074   -8.8654    0.0000 H   0  0  0  0  0  0  0  0  0  0  0  0
  -14.9650   -8.4802    0.0000 H   0  0  0  0  0  0  0  0  0  0  0  0
  -17.9644   -5.6896    0.0000 H   0  0  0  0  0  0  0  0  0  0  0  0
  -21.0922   -8.9248    0.0000 H   0  0  0  0  0  0  0  0  0  0  0  0
  -20.4622   -6.4043    0.0000 H   0  0  0  0  0  0  0  0  0  0  0  0
  -19.2243  -10.7307    0.0000 H   0  0  0  0  0  0  0  0  0  0  0  0
  -16.7265  -10.0159    0.0000 H   0  0  0  0  0  0  0  0  0  0  0  0
  -12.6035   -9.1340    0.0000 H   0  0  0  0  0  0  0  0  0  0  0  0
  -11.7840   -9.7426    0.0000 H   0  0  0  0  0  0  0  0  0  0  0  0
  -10.5485  -12.5026    0.0000 H   0  0  0  0  0  0  0  0  0  0  0  0
   -9.1461  -11.3993    0.0000 H   0  0  0  0  0  0  0  0  0  0  0  0
  -13.5133  -11.4499    0.0000 H   0  0  0  0  0  0  0  0  0  0  0  0
  -12.5925  -10.1002    0.0000 H   0  0  0  0  0  0  0  0  0  0  0  0
   -8.4834  -12.4450    0.0000 H   0  0  0  0  0  0  0  0  0  0  0  0
   -4.0325  -12.9307    0.0000 H   0  0  0  0  0  0  0  0  0  0  0  0
   -5.2808  -13.0954    0.0000 H   0  0  0  0  0  0  0  0  0  0  0  0
   -2.4561  -12.7172    0.0000 H   0  0  0  0  0  0  0  0  0  0  0  0
   -3.5098  -12.9980    0.0000 H   0  0  0  0  0  0  0  0  0  0  0  0
   -0.8078  -12.0920    0.0000 H   0  0  0  0  0  0  0  0  0  0  0  0
   -1.9725  -12.5704    0.0000 H   0  0  0  0  0  0  0  0  0  0  0  0
    0.6925  -11.1662    0.0000 H   0  0  0  0  0  0  0  0  0  0  0  0
   -0.3606  -11.8564    0.0000 H   0  0  0  0  0  0  0  0  0  0  0  0
    1.9904   -9.9732    0.0000 H   0  0  0  0  0  0  0  0  0  0  0  0
    1.0869  -10.8502    0.0000 H   0  0  0  0  0  0  0  0  0  0  0  0
    3.0602   -8.3742    0.0000 H   0  0  0  0  0  0  0  0  0  0  0  0
    2.3179   -9.5883    0.0000 H   0  0  0  0  0  0  0  0  0  0  0  0
    3.6707   -7.5976    0.0000 H   0  0  0  0  0  0  0  0  0  0  0  0
   -7.0563  -14.1185    0.0000 H   0  0  0  0  0  0  0  0  0  0  0  0
   -8.5689  -13.5008    0.0000 H   0  0  0  0  0  0  0  0  0  0  0  0
   -8.5156  -11.7172    0.0000 H   0  0  0  0  0  0  0  0  0  0  0  0
  1  2  1  0
  2  3  1  0
  3  4  2  0
  4  5  1  0
  5  6  2  0
  6  7  1  0
  7  8  2  0
  7  9  1  0
  9 10  1  0
 10 11  1  0
 11 12  2  0
  9 13  1  0
 13 14  1  0
 14 15  2  0
 15 16  1  0
 16 17  2  0
 17 18  1  0
 16 19  1  0
 14 20  1  0
 20 21  1  0
 21 22  2  0
 22 23  1  0
 23 24  2  0
 24 25  1  0
 25 26  2  0
 25 27  1  0
  1 28  2  0
  1 29  1  0
 29 30  1  0
 30 31  1  0
 31 32  1  0
 32 33  2  0
 32 34  1  0
 35 34  1  1
 35 36  1  0
 36 37  1  0
 37 38  1  0
 38 39  1  0
 35 40  1  0
 35 41  1  0
 41 42  2  0
 41 43  1  0
 43 44  1  0
 44 45  1  0
 45 46  1  0
 46 47  1  0
 47 48  1  0
 48 49  1  0
 49 50  2  3
 49 51  1  0
 44 52  1  0
 52 53  2  0
 52 54  1  0
 54 55  1  0
 55 56  1  0
 56 57  1  0
 57 58  1  0
 58 59  1  0
 59 60  1  0
 60 61  2  3
 60 62  1  0
 55 63  1  0
 63 64  2  0
 63 65  1  0
 65 66  1  0
 66 67  1  0
 67 68  1  0
 68 69  1  0
 68 70  2  0
 66 71  1  0
 71 72  2  0
 71 73  1  0
 73 74  1  0
 74 75  1  0
 75 76  1  0
 76 77  1  0
 77 78  1  0
 74 79  1  0
 79 80  1  0
 80 81  1  0
 81 82  1  0
 74 83  1  0
 83 84  2  0
 83 85  1  0
 85 86  1  0
 86 87  1  0
 87 88  1  0
 88 89  1  0
 89 90  1  0
 90 91  1  0
 91 92  2  3
 91 93  1  0
 86 94  1  0
 94 95  2  0
 94 96  1  0
 96 97  1  0
 97 98  1  0
 98 99  1  0
 99100  1  0
100101  1  0
101102  1  0
102103  2  3
102104  1  0
 97105  1  0
105106  2  0
105107  1  0
107108  1  0
108109  1  0
109110  1  0
110111  1  0
111112  1  0
112113  1  0
113114  2  3
113115  1  0
108116  1  0
116117  2  0
116118  1  0
118119  1  0
119120  1  0
120121  1  0
121122  2  0
122123  1  0
123124  1  0
124125  2  0
125126  1  0
126127  2  0
127128  1  0
128129  2  0
119130  1  0
130131  2  0
130132  1  0
132133  1  0
133134  1  0
134135  1  0
135136  1  0
136137  1  0
137138  1  0
138139  2  3
138140  1  0
133141  1  0
141142  2  0
141143  1  0
143144  1  0
144145  1  0
145146  1  0
146147  1  0
147148  2  0
147149  1  0
144150  1  0
150151  2  0
150152  1  0
152153  1  0
153154  1  0
154155  1  0
155156  1  0
156157  1  0
157158  1  0
158159  1  0
159160  1  0
153161  1  0
153162  1  1
162163  2  0
162164  1  0
  8  3  1  0
129121  1  0
 11  6  1  0
129124  1  0
 18 13  2  0
 39 78  2  0
 22  9  1  0
 82160  2  0
 26 21  1  0
  2165  1  0
  4166  1  0
  5167  1  0
  8168  1  0
 15169  1  0
 17170  1  0
 18171  1  0
 19172  1  0
 23173  1  0
 24174  1  0
 26175  1  0
 27176  1  0
 29177  1  0
 30178  1  0
 30179  1  0
 31180  1  0
 31181  1  0
 34182  1  0
 36183  1  0
 36184  1  0
 37185  1  0
 37186  1  0
 38187  1  0
 38188  1  0
 39189  1  0
 40190  1  0
 40191  1  0
 40192  1  0
 43193  1  0
 44194  1  6
 45195  1  0
 45196  1  0
 46197  1  0
 46198  1  0
 47199  1  0
 47200  1  0
 48201  1  0
 50202  1  0
 50203  1  0
 51204  1  0
 51205  1  0
 54206  1  0
 55207  1  6
 56208  1  0
 56209  1  0
 57210  1  0
 57211  1  0
 58212  1  0
 58213  1  0
 59214  1  0
 61215  1  0
 61216  1  0
 62217  1  0
 62218  1  0
 65219  1  0
 66220  1  6
 67221  1  0
 67222  1  0
 69223  1  0
 69224  1  0
 73225  1  0
 75226  1  0
 75227  1  0
 76228  1  0
 76229  1  0
 77230  1  0
 77231  1  0
 78232  1  0
 79233  1  0
 79234  1  0
 80235  1  0
 80236  1  0
 81237  1  0
 81238  1  0
 82239  1  0
 85240  1  0
 86241  1  6
 87242  1  0
 87243  1  0
 88244  1  0
 88245  1  0
 89246  1  0
 89247  1  0
 90248  1  0
 92249  1  0
 92250  1  0
 93251  1  0
 93252  1  0
 96253  1  0
 97254  1  6
 98255  1  0
 98256  1  0
 99257  1  0
 99258  1  0
100259  1  0
100260  1  0
101261  1  0
103262  1  0
103263  1  0
104264  1  0
104265  1  0
107266  1  0
108267  1  6
109268  1  0
109269  1  0
110270  1  0
110271  1  0
111272  1  0
111273  1  0
112274  1  0
114275  1  0
114276  1  0
115277  1  0
115278  1  0
118279  1  0
119280  1  6
120281  1  0
120282  1  0
122283  1  0
123284  1  0
125285  1  0
126286  1  0
127287  1  0
128288  1  0
132289  1  0
133290  1  6
134291  1  0
134292  1  0
135293  1  0
135294  1  0
136295  1  0
136296  1  0
137297  1  0
139298  1  0
139299  1  0
140300  1  0
140301  1  0
143302  1  0
144303  1  6
145304  1  0
145305  1  0
146306  1  0
146307  1  0
152308  1  0
154309  1  0
154310  1  0
155311  1  0
155312  1  0
156313  1  0
156314  1  0
157315  1  0
157316  1  0
158317  1  0
158318  1  0
159319  1  0
159320  1  0
160321  1  0
161322  1  0
161323  1  0
161324  1  0
M  CHG  8  50   1  61   1  92   1 103   1 114   1 139   1 149  -1 164  -1
M  END
