
     RDKit          2D

422431  0  0  0  0  0  0  0  0999 V2000
   26.0703    6.7112    0.0000 C   0  0  0  0  0  0  0  0  0  0  0  0
   25.6796    8.1594    0.0000 N   0  0  0  0  0  0  0  0  0  0  0  0
   26.7384    9.2219    0.0000 C   0  0  0  0  0  0  0  0  0  0  0  0
   28.1880    8.8361    0.0000 C   0  0  0  0  0  0  0  0  0  0  0  0
   29.2468    9.8986    0.0000 C   0  0  0  0  0  0  0  0  0  0  0  0
   28.8561   11.3468    0.0000 C   0  0  0  0  0  0  0  0  0  0  0  0
   27.4066   11.7326    0.0000 C   0  0  0  0  0  0  0  0  0  0  0  0
   26.3477   10.6701    0.0000 C   0  0  0  0  0  0  0  0  0  0  0  0
   27.3255   13.2304    0.0000 C   0  0  0  0  0  0  0  0  0  0  0  0
   28.7250   13.7703    0.0000 O   0  0  0  0  0  0  0  0  0  0  0  0
   29.6710   12.6062    0.0000 C   0  0  0  0  0  0  0  0  0  0  0  0
   31.1688   12.6873    0.0000 O   0  0  0  0  0  0  0  0  0  0  0  0
   27.4015   14.7285    0.0000 C   0  0  0  0  0  0  0  0  0  0  0  0
   26.1421   15.5433    0.0000 C   0  0  0  0  0  0  0  0  0  0  0  0
   26.2181   17.0413    0.0000 C   0  0  0  0  0  0  0  0  0  0  0  0
   27.5534   17.7246    0.0000 C   0  0  0  0  0  0  0  0  0  0  0  0
   28.8128   16.9098    0.0000 C   0  0  0  0  0  0  0  0  0  0  0  0
   28.7368   15.4117    0.0000 C   0  0  0  0  0  0  0  0  0  0  0  0
   27.6294   19.2227    0.0000 O   0  0  0  0  0  0  0  0  0  0  0  0
   24.8068   14.8600    0.0000 O   0  0  0  0  0  0  0  0  0  0  0  0
   24.7308   13.3619    0.0000 C   0  0  0  0  0  0  0  0  0  0  0  0
   25.9902   12.5471    0.0000 C   0  0  0  0  0  0  0  0  0  0  0  0
   25.3265   11.4293    0.0000 C   0  0  0  0  0  0  0  0  0  0  0  0
   24.6143   11.0649    0.0000 C   0  0  0  0  0  0  0  0  0  0  0  0
   23.9427   11.4995    0.0000 C   0  0  0  0  0  0  0  0  0  0  0  0
   23.9832   12.2984    0.0000 C   0  0  0  0  0  0  0  0  0  0  0  0
   21.9841   10.4973    0.0000 O   0  0  0  0  0  0  0  0  0  0  0  0
   27.5198    6.3254    0.0000 S   0  0  0  0  0  0  0  0  0  0  0  0
   25.0114    5.6487    0.0000 N   0  0  0  0  0  0  0  0  0  0  0  0
   25.4021    4.2005    0.0000 C   0  0  0  0  0  0  0  0  0  0  0  0
   24.3432    3.1380    0.0000 C   0  0  0  0  0  0  0  0  0  0  0  0
   24.7339    1.6898    0.0000 C   0  0  0  0  0  0  0  0  0  0  0  0
   25.5310    1.6773    0.0000 O   0  0  0  0  0  0  0  0  0  0  0  0
   23.6751    0.6274    0.0000 N   0  0  0  0  0  0  0  0  0  0  0  0
   24.0658   -0.8209    0.0000 C   0  0  0  0  0  0  0  0  0  0  0  0
   25.4242   -0.1846    0.0000 C   0  0  0  0  0  0  0  0  0  0  0  0
   25.5524    1.3099    0.0000 C   0  0  0  0  0  0  0  0  0  0  0  0
   26.9107    1.9461    0.0000 C   0  0  0  0  0  0  0  0  0  0  0  0
   27.2201    3.4139    0.0000 O   0  0  0  0  0  0  0  0  0  0  0  0
   28.1409    1.0878    0.0000 O   0  0  0  0  0  0  0  0  0  0  0  0
   23.9376   -2.3154    0.0000 C   0  0  0  0  0  0  0  0  0  0  0  0
   25.3389   -2.8505    0.0000 O   0  0  0  0  0  0  0  0  0  0  0  0
   22.5792   -2.9516    0.0000 N   0  0  0  0  0  0  0  0  0  0  0  0
   22.4510   -4.4461    0.0000 C   0  0  0  0  0  0  0  0  0  0  0  0
   23.9451   -4.3129    0.0000 C   0  0  0  0  0  0  0  0  0  0  0  0
   24.5767   -2.9523    0.0000 C   0  0  0  0  0  0  0  0  0  0  0  0
   26.0708   -2.8190    0.0000 O   0  0  0  0  0  0  0  0  0  0  0  0
   24.0368   -1.5528    0.0000 O   0  0  0  0  0  0  0  0  0  0  0  0
   21.8194   -5.8067    0.0000 C   0  0  0  0  0  0  0  0  0  0  0  0
   22.9532   -6.7888    0.0000 O   0  0  0  0  0  0  0  0  0  0  0  0
   20.3253   -5.9399    0.0000 N   0  0  0  0  0  0  0  0  0  0  0  0
   19.6937   -7.3005    0.0000 C   0  0  0  0  0  0  0  0  0  0  0  0
   21.1433   -7.6863    0.0000 C   0  0  0  0  0  0  0  0  0  0  0  0
   22.2021   -6.6238    0.0000 C   0  0  0  0  0  0  0  0  0  0  0  0
   22.3735   -8.5445    0.0000 C   0  0  0  0  0  0  0  0  0  0  0  0
   23.7318   -7.9083    0.0000 C   0  0  0  0  0  0  0  0  0  0  0  0
   18.6349   -8.3629    0.0000 C   0  0  0  0  0  0  0  0  0  0  0  0
   19.3644   -9.6736    0.0000 O   0  0  0  0  0  0  0  0  0  0  0  0
   17.1853   -7.9772    0.0000 N   0  0  0  0  0  0  0  0  0  0  0  0
   16.1265   -9.0396    0.0000 C   0  0  0  0  0  0  0  0  0  0  0  0
   17.3566   -9.8979    0.0000 C   0  0  0  0  0  0  0  0  0  0  0  0
   18.7150   -9.2617    0.0000 C   0  0  0  0  0  0  0  0  0  0  0  0
   18.2191  -11.1252    0.0000 C   0  0  0  0  0  0  0  0  0  0  0  0
   19.6858  -10.8108    0.0000 C   0  0  0  0  0  0  0  0  0  0  0  0
   14.7681   -9.6759    0.0000 C   0  0  0  0  0  0  0  0  0  0  0  0
   15.0053  -11.1570    0.0000 O   0  0  0  0  0  0  0  0  0  0  0  0
   13.5379   -8.8176    0.0000 N   0  0  0  0  0  0  0  0  0  0  0  0
   12.1795   -9.4539    0.0000 C   0  0  0  0  0  0  0  0  0  0  0  0
   13.0420  -10.6811    0.0000 C   0  0  0  0  0  0  0  0  0  0  0  0
   14.5360  -10.5478    0.0000 C   0  0  0  0  0  0  0  0  0  0  0  0
   15.3985  -11.7751    0.0000 C   0  0  0  0  0  0  0  0  0  0  0  0
   16.8925  -11.6418    0.0000 N   0  0  0  0  0  0  0  0  0  0  0  0
   17.7550  -12.8691    0.0000 C   0  0  0  0  0  0  0  0  0  0  0  0
   19.2542  -12.9189    0.0000 N   0  0  0  0  0  0  0  0  0  0  0  0
   17.1234  -14.2296    0.0000 N   0  0  0  0  0  0  0  0  0  0  0  0
   10.6854   -9.5871    0.0000 C   0  0  0  0  0  0  0  0  0  0  0  0
   10.4018  -11.0601    0.0000 O   0  0  0  0  0  0  0  0  0  0  0  0
    9.8230   -8.3599    0.0000 N   0  0  0  0  0  0  0  0  0  0  0  0
    8.3289   -8.4931    0.0000 C   0  0  0  0  0  0  0  0  0  0  0  0
    8.7196   -9.9414    0.0000 C   0  0  0  0  0  0  0  0  0  0  0  0
   10.1692  -10.3271    0.0000 C   0  0  0  0  0  0  0  0  0  0  0  0
   10.5599  -11.7754    0.0000 N   0  0  0  0  0  0  0  0  0  0  0  0
   11.4536   -9.5525    0.0000 O   0  0  0  0  0  0  0  0  0  0  0  0
    6.8794   -8.1074    0.0000 C   0  0  0  0  0  0  0  0  0  0  0  0
    6.1091   -9.3945    0.0000 O   0  0  0  0  0  0  0  0  0  0  0  0
    6.4887   -6.6591    0.0000 N   0  0  0  0  0  0  0  0  0  0  0  0
    5.0391   -6.2734    0.0000 C   0  0  0  0  0  0  0  0  0  0  0  0
    4.9109   -7.7679    0.0000 C   0  0  0  0  0  0  0  0  0  0  0  0
    6.0273   -8.7697    0.0000 C   0  0  0  0  0  0  0  0  0  0  0  0
    4.2793   -9.1284    0.0000 C   0  0  0  0  0  0  0  0  0  0  0  0
    2.7853   -9.2617    0.0000 C   0  0  0  0  0  0  0  0  0  0  0  0
    3.8089   -5.4151    0.0000 C   0  0  0  0  0  0  0  0  0  0  0  0
    2.5382   -6.2122    0.0000 O   0  0  0  0  0  0  0  0  0  0  0  0
    3.9371   -3.9206    0.0000 N   0  0  0  0  0  0  0  0  0  0  0  0
    2.7069   -3.0623    0.0000 C   0  0  0  0  0  0  0  0  0  0  0  0
    2.0753   -4.4229    0.0000 C   0  0  0  0  0  0  0  0  0  0  0  0
    1.8445   -1.8351    0.0000 C   0  0  0  0  0  0  0  0  0  0  0  0
    0.4975   -2.4950    0.0000 O   0  0  0  0  0  0  0  0  0  0  0  0
    2.4761   -0.4745    0.0000 N   0  0  0  0  0  0  0  0  0  0  0  0
    1.6137    0.7527    0.0000 C   0  0  0  0  0  0  0  0  0  0  0  0
    0.8497   -0.5381    0.0000 C   0  0  0  0  0  0  0  0  0  0  0  0
   -0.2608   -1.5465    0.0000 C   0  0  0  0  0  0  0  0  0  0  0  0
   -1.6192   -2.1827    0.0000 C   0  0  0  0  0  0  0  0  0  0  0  0
   -3.1047   -2.3903    0.0000 C   0  0  0  0  0  0  0  0  0  0  0  0
    3.0870    1.0341    0.0000 C   0  0  0  0  0  0  0  0  0  0  0  0
    1.9632    2.2115    0.0000 C   0  0  0  0  0  0  0  0  0  0  0  0
    3.4577    2.0833    0.0000 O   0  0  0  0  0  0  0  0  0  0  0  0
    1.8672    3.7084    0.0000 N   0  0  0  0  0  0  0  0  0  0  0  0
    1.3342    5.1105    0.0000 C   0  0  0  0  0  0  0  0  0  0  0  0
    2.0329    6.4379    0.0000 C   0  0  0  0  0  0  0  0  0  0  0  0
    3.5317    6.4965    0.0000 C   0  0  0  0  0  0  0  0  0  0  0  0
    4.3653    7.7436    0.0000 C   0  0  0  0  0  0  0  0  0  0  0  0
    5.8089    7.3362    0.0000 N   0  0  0  0  0  0  0  0  0  0  0  0
    5.8675    5.8373    0.0000 C   0  0  0  0  0  0  0  0  0  0  0  0
    4.4602    5.3184    0.0000 N   0  0  0  0  0  0  0  0  0  0  0  0
    0.4117    6.2933    0.0000 C   0  0  0  0  0  0  0  0  0  0  0  0
    1.4437    7.3818    0.0000 O   0  0  0  0  0  0  0  0  0  0  0  0
   -0.8185    7.1515    0.0000 N   0  0  0  0  0  0  0  0  0  0  0  0
   -2.2470    7.6091    0.0000 C   0  0  0  0  0  0  0  0  0  0  0  0
   -2.8492    8.9829    0.0000 C   0  0  0  0  0  0  0  0  0  0  0  0
   -1.9605   10.1913    0.0000 C   0  0  0  0  0  0  0  0  0  0  0  0
   -2.5627   11.5651    0.0000 C   0  0  0  0  0  0  0  0  0  0  0  0
   -0.7121   11.0229    0.0000 C   0  0  0  0  0  0  0  0  0  0  0  0
   -3.7469    7.6252    0.0000 C   0  0  0  0  0  0  0  0  0  0  0  0
   -3.9545    9.1108    0.0000 O   0  0  0  0  0  0  0  0  0  0  0  0
   -5.1850    7.1985    0.0000 N   0  0  0  0  0  0  0  0  0  0  0  0
   -6.4334    6.3670    0.0000 C   0  0  0  0  0  0  0  0  0  0  0  0
   -7.8829    6.7527    0.0000 C   0  0  0  0  0  0  0  0  0  0  0  0
   -7.3812    5.2043    0.0000 C   0  0  0  0  0  0  0  0  0  0  0  0
   -8.3125    6.3802    0.0000 O   0  0  0  0  0  0  0  0  0  0  0  0
   -7.9442    3.8140    0.0000 N   0  0  0  0  0  0  0  0  0  0  0  0
   -8.0724    2.3195    0.0000 C   0  0  0  0  0  0  0  0  0  0  0  0
   -7.7544    0.8536    0.0000 C   0  0  0  0  0  0  0  0  0  0  0  0
   -7.0184   -0.4534    0.0000 C   0  0  0  0  0  0  0  0  0  0  0  0
   -5.9299   -1.4855    0.0000 C   0  0  0  0  0  0  0  0  0  0  0  0
   -4.5855   -2.1508    0.0000 C   0  0  0  0  0  0  0  0  0  0  0  0
   -8.1191    0.8202    0.0000 C   0  0  0  0  0  0  0  0  0  0  0  0
   -8.4488   -0.6431    0.0000 C   0  0  0  0  0  0  0  0  0  0  0  0
   -9.0494   -2.0176    0.0000 C   0  0  0  0  0  0  0  0  0  0  0  0
   -9.8993   -3.2536    0.0000 C   0  0  0  0  0  0  0  0  0  0  0  0
   -8.3102    3.8005    0.0000 C   0  0  0  0  0  0  0  0  0  0  0  0
   -6.8585    4.1781    0.0000 O   0  0  0  0  0  0  0  0  0  0  0  0
   -8.8240    5.2098    0.0000 N   0  0  0  0  0  0  0  0  0  0  0  0
   -9.5953    6.4963    0.0000 C   0  0  0  0  0  0  0  0  0  0  0  0
   -9.0386    7.8892    0.0000 C   0  0  0  0  0  0  0  0  0  0  0  0
   -9.8159    9.1721    0.0000 C   0  0  0  0  0  0  0  0  0  0  0  0
  -10.5961    7.6136    0.0000 C   0  0  0  0  0  0  0  0  0  0  0  0
   -9.7209    8.8319    0.0000 O   0  0  0  0  0  0  0  0  0  0  0  0
  -11.7902    8.5214    0.0000 N   0  0  0  0  0  0  0  0  0  0  0  0
  -13.1346    9.1867    0.0000 C   0  0  0  0  0  0  0  0  0  0  0  0
  -14.5806    9.5856    0.0000 C   0  0  0  0  0  0  0  0  0  0  0  0
  -14.3210   11.0630    0.0000 O   0  0  0  0  0  0  0  0  0  0  0  0
  -16.0759    9.7036    0.0000 N   0  0  0  0  0  0  0  0  0  0  0  0
  -17.5666    9.5365    0.0000 C   0  0  0  0  0  0  0  0  0  0  0  0
  -18.6023   10.6215    0.0000 C   0  0  0  0  0  0  0  0  0  0  0  0
  -18.1806   12.0610    0.0000 C   0  0  0  0  0  0  0  0  0  0  0  0
  -19.2163   13.1460    0.0000 O   0  0  0  0  0  0  0  0  0  0  0  0
  -16.7230   12.4155    0.0000 O   0  0  0  0  0  0  0  0  0  0  0  0
  -18.9987    9.0903    0.0000 C   0  0  0  0  0  0  0  0  0  0  0  0
  -19.7433   10.3925    0.0000 O   0  0  0  0  0  0  0  0  0  0  0  0
  -20.3205    8.3812    0.0000 N   0  0  0  0  0  0  0  0  0  0  0  0
  -21.4842    7.4347    0.0000 C   0  0  0  0  0  0  0  0  0  0  0  0
  -22.9421    7.7875    0.0000 C   0  0  0  0  0  0  0  0  0  0  0  0
  -23.3655    9.2265    0.0000 C   0  0  0  0  0  0  0  0  0  0  0  0
  -22.4502   10.4149    0.0000 C   0  0  0  0  0  0  0  0  0  0  0  0
  -23.2976   11.6526    0.0000 N   0  0  0  0  0  0  0  0  0  0  0  0
  -24.7366   11.2292    0.0000 C   0  0  0  0  0  0  0  0  0  0  0  0
  -26.0141   12.0152    0.0000 C   0  0  0  0  0  0  0  0  0  0  0  0
  -27.3336   11.3019    0.0000 C   0  0  0  0  0  0  0  0  0  0  0  0
  -27.3756    9.8025    0.0000 C   0  0  0  0  0  0  0  0  0  0  0  0
  -26.0981    9.0164    0.0000 C   0  0  0  0  0  0  0  0  0  0  0  0
  -24.7786    9.7298    0.0000 C   0  0  0  0  0  0  0  0  0  0  0  0
  -22.4477    6.2851    0.0000 C   0  0  0  0  0  0  0  0  0  0  0  0
  -23.7781    6.9780    0.0000 O   0  0  0  0  0  0  0  0  0  0  0  0
  -23.1763    4.9739    0.0000 N   0  0  0  0  0  0  0  0  0  0  0  0
  -23.6435    3.5485    0.0000 C   0  0  0  0  0  0  0  0  0  0  0  0
  -25.0607    3.0571    0.0000 C   0  0  0  0  0  0  0  0  0  0  0  0
  -26.1949    4.0388    0.0000 C   0  0  0  0  0  0  0  0  0  0  0  0
  -27.6121    3.5474    0.0000 C   0  0  0  0  0  0  0  0  0  0  0  0
  -28.7463    4.5290    0.0000 C   0  0  0  0  0  0  0  0  0  0  0  0
  -23.8325    2.0605    0.0000 C   0  0  0  0  0  0  0  0  0  0  0  0
  -25.3263    1.9241    0.0000 O   0  0  0  0  0  0  0  0  0  0  0  0
  -23.7366    0.5635    0.0000 N   0  0  0  0  0  0  0  0  0  0  0  0
  -23.3590   -0.8882    0.0000 C   0  0  0  0  0  0  0  0  0  0  0  0
  -24.2856   -2.0678    0.0000 C   0  0  0  0  0  0  0  0  0  0  0  0
  -25.7704   -1.8551    0.0000 C   0  0  0  0  0  0  0  0  0  0  0  0
  -26.6970   -3.0347    0.0000 O   0  0  0  0  0  0  0  0  0  0  0  0
  -26.3287   -0.4629    0.0000 O   0  0  0  0  0  0  0  0  0  0  0  0
  -22.7135   -2.2422    0.0000 C   0  0  0  0  0  0  0  0  0  0  0  0
  -23.8965   -3.1645    0.0000 O   0  0  0  0  0  0  0  0  0  0  0  0
  -21.8235   -3.4496    0.0000 N   0  0  0  0  0  0  0  0  0  0  0  0
  -20.7210   -4.4667    0.0000 C   0  0  0  0  0  0  0  0  0  0  0  0
  -19.4460   -5.2568    0.0000 C   0  0  0  0  0  0  0  0  0  0  0  0
  -18.0445   -5.7914    0.0000 C   0  0  0  0  0  0  0  0  0  0  0  0
  -16.5671   -6.0510    0.0000 C   0  0  0  0  0  0  0  0  0  0  0  0
  -15.0673   -6.0264    0.0000 C   0  0  0  0  0  0  0  0  0  0  0  0
  -13.5993   -5.7183    0.0000 C   0  0  0  0  0  0  0  0  0  0  0  0
  -12.2161   -5.1380    0.0000 C   0  0  0  0  0  0  0  0  0  0  0  0
  -10.9677   -4.3064    0.0000 C   0  0  0  0  0  0  0  0  0  0  0  0
  -22.1220   -5.0028    0.0000 C   0  0  0  0  0  0  0  0  0  0  0  0
  -20.8628   -5.9600    0.0000 C   0  0  0  0  0  0  0  0  0  0  0  0
  -19.8871   -7.0993    0.0000 O   0  0  0  0  0  0  0  0  0  0  0  0
  -22.2269   -6.5839    0.0000 N   0  0  0  0  0  0  0  0  0  0  0  0
  -22.3686   -8.0772    0.0000 C   0  0  0  0  0  0  0  0  0  0  0  0
  -21.9911   -9.5289    0.0000 C   0  0  0  0  0  0  0  0  0  0  0  0
  -22.6111  -10.8947    0.0000 O   0  0  0  0  0  0  0  0  0  0  0  0
  -23.7327   -8.7011    0.0000 C   0  0  0  0  0  0  0  0  0  0  0  0
  -24.9551   -7.8317    0.0000 O   0  0  0  0  0  0  0  0  0  0  0  0
  -23.8744  -10.1944    0.0000 N   0  0  0  0  0  0  0  0  0  0  0  0
  -25.2385  -10.8183    0.0000 C   0  0  0  0  0  0  0  0  0  0  0  0
  -26.7337  -10.9380    0.0000 C   0  0  0  0  0  0  0  0  0  0  0  0
  -27.4281   -9.6084    0.0000 C   0  0  0  0  0  0  0  0  0  0  0  0
  -28.0978  -11.5619    0.0000 C   0  0  0  0  0  0  0  0  0  0  0  0
  -29.3202  -10.6925    0.0000 C   0  0  0  0  0  0  0  0  0  0  0  0
  -25.3803  -12.3116    0.0000 C   0  0  0  0  0  0  0  0  0  0  0  0
  -26.5529  -13.2470    0.0000 O   0  0  0  0  0  0  0  0  0  0  0  0
  -24.1579  -13.1810    0.0000 O   0  0  0  0  0  0  0  0  0  0  0  0
   24.1938    8.3656    0.0000 H   0  0  0  0  0  0  0  0  0  0  0  0
   28.5787    7.3879    0.0000 H   0  0  0  0  0  0  0  0  0  0  0  0
   30.6964    9.5128    0.0000 H   0  0  0  0  0  0  0  0  0  0  0  0
   24.8479   10.6937    0.0000 H   0  0  0  0  0  0  0  0  0  0  0  0
   24.9587   17.8562    0.0000 H   0  0  0  0  0  0  0  0  0  0  0  0
   30.1482   17.5930    0.0000 H   0  0  0  0  0  0  0  0  0  0  0  0
   29.9962   14.5969    0.0000 H   0  0  0  0  0  0  0  0  0  0  0  0
   28.9647   19.9059    0.0000 H   0  0  0  0  0  0  0  0  0  0  0  0
   27.1736   10.2342    0.0000 H   0  0  0  0  0  0  0  0  0  0  0  0
   24.3209    8.8881    0.0000 H   0  0  0  0  0  0  0  0  0  0  0  0
   22.1361   13.4935    0.0000 H   0  0  0  0  0  0  0  0  0  0  0  0
   20.7247   11.3122    0.0000 H   0  0  0  0  0  0  0  0  0  0  0  0
   23.5619    6.0345    0.0000 H   0  0  0  0  0  0  0  0  0  0  0  0
   26.7605    4.8367    0.0000 H   0  0  0  0  0  0  0  0  0  0  0  0
   26.4077    3.0875    0.0000 H   0  0  0  0  0  0  0  0  0  0  0  0
   23.4808    4.3653    0.0000 H   0  0  0  0  0  0  0  0  0  0  0  0
   22.9849    2.5018    0.0000 H   0  0  0  0  0  0  0  0  0  0  0  0
   22.2255    1.0131    0.0000 H   0  0  0  0  0  0  0  0  0  0  0  0
   22.5717   -0.9541    0.0000 H   0  0  0  0  0  0  0  0  0  0  0  0
   26.9182   -0.0514    0.0000 H   0  0  0  0  0  0  0  0  0  0  0  0
   25.8149   -1.6329    0.0000 H   0  0  0  0  0  0  0  0  0  0  0  0
   25.1617    2.7581    0.0000 H   0  0  0  0  0  0  0  0  0  0  0  0
   24.0704    1.5421    0.0000 H   0  0  0  0  0  0  0  0  0  0  0  0
   21.3490   -2.0934    0.0000 H   0  0  0  0  0  0  0  0  0  0  0  0
   21.0015   -4.0604    0.0000 H   0  0  0  0  0  0  0  0  0  0  0  0
   25.3946   -4.6986    0.0000 H   0  0  0  0  0  0  0  0  0  0  0  0
   23.8169   -5.8074    0.0000 H   0  0  0  0  0  0  0  0  0  0  0  0
   19.4629   -4.7127    0.0000 H   0  0  0  0  0  0  0  0  0  0  0  0
   18.4635   -6.4422    0.0000 H   0  0  0  0  0  0  0  0  0  0  0  0
   20.5116   -9.0468    0.0000 H   0  0  0  0  0  0  0  0  0  0  0  0
   23.6879   -6.8300    0.0000 H   0  0  0  0  0  0  0  0  0  0  0  0
   22.8337   -5.2633    0.0000 H   0  0  0  0  0  0  0  0  0  0  0  0
   21.2529   -5.4680    0.0000 H   0  0  0  0  0  0  0  0  0  0  0  0
   23.2359   -9.7718    0.0000 H   0  0  0  0  0  0  0  0  0  0  0  0
   21.4520   -9.7281    0.0000 H   0  0  0  0  0  0  0  0  0  0  0  0
   24.9620   -8.7666    0.0000 H   0  0  0  0  0  0  0  0  0  0  0  0
   24.7907   -6.8458    0.0000 H   0  0  0  0  0  0  0  0  0  0  0  0
   23.3666   -6.4534    0.0000 H   0  0  0  0  0  0  0  0  0  0  0  0
   16.7946   -6.5290    0.0000 H   0  0  0  0  0  0  0  0  0  0  0  0
   15.2640   -7.8124    0.0000 H   0  0  0  0  0  0  0  0  0  0  0  0
   16.5863  -11.1850    0.0000 H   0  0  0  0  0  0  0  0  0  0  0  0
   20.0407   -9.9636    0.0000 H   0  0  0  0  0  0  0  0  0  0  0  0
   19.7739   -8.1992    0.0000 H   0  0  0  0  0  0  0  0  0  0  0  0
   18.2184   -7.8509    0.0000 H   0  0  0  0  0  0  0  0  0  0  0  0
   18.7834  -12.5150    0.0000 H   0  0  0  0  0  0  0  0  0  0  0  0
   17.0550  -12.0712    0.0000 H   0  0  0  0  0  0  0  0  0  0  0  0
   20.5756  -12.2192    0.0000 H   0  0  0  0  0  0  0  0  0  0  0  0
   21.1390  -10.5260    0.0000 H   0  0  0  0  0  0  0  0  0  0  0  0
   19.8675   -9.4999    0.0000 H   0  0  0  0  0  0  0  0  0  0  0  0
   13.6661   -7.3231    0.0000 H   0  0  0  0  0  0  0  0  0  0  0  0
   11.7888   -8.0056    0.0000 H   0  0  0  0  0  0  0  0  0  0  0  0
   13.2532  -12.1662    0.0000 H   0  0  0  0  0  0  0  0  0  0  0  0
   11.7713  -11.4782    0.0000 H   0  0  0  0  0  0  0  0  0  0  0  0
   15.8944   -9.9116    0.0000 H   0  0  0  0  0  0  0  0  0  0  0  0
   14.5074   -9.0481    0.0000 H   0  0  0  0  0  0  0  0  0  0  0  0
   15.7892  -13.2233    0.0000 H   0  0  0  0  0  0  0  0  0  0  0  0
   14.1278  -12.5722    0.0000 H   0  0  0  0  0  0  0  0  0  0  0  0
   17.8346  -10.4746    0.0000 H   0  0  0  0  0  0  0  0  0  0  0  0
   20.1115  -13.9631    0.0000 H   0  0  0  0  0  0  0  0  0  0  0  0
   20.0642  -11.4632    0.0000 H   0  0  0  0  0  0  0  0  0  0  0  0
   17.9858  -15.4569    0.0000 H   0  0  0  0  0  0  0  0  0  0  0  0
   15.6293  -14.3629    0.0000 H   0  0  0  0  0  0  0  0  0  0  0  0
   10.4546   -6.9993    0.0000 H   0  0  0  0  0  0  0  0  0  0  0  0
    8.4571   -6.9986    0.0000 H   0  0  0  0  0  0  0  0  0  0  0  0
    8.5914  -11.4359    0.0000 H   0  0  0  0  0  0  0  0  0  0  0  0
    7.2255  -10.0746    0.0000 H   0  0  0  0  0  0  0  0  0  0  0  0
   11.9516  -12.3349    0.0000 H   0  0  0  0  0  0  0  0  0  0  0  0
    9.5010  -12.8378    0.0000 H   0  0  0  0  0  0  0  0  0  0  0  0
    7.5475   -5.5967    0.0000 H   0  0  0  0  0  0  0  0  0  0  0  0
    5.6707   -4.9128    0.0000 H   0  0  0  0  0  0  0  0  0  0  0  0
    3.5192   -7.2083    0.0000 H   0  0  0  0  0  0  0  0  0  0  0  0
    6.1777  -10.1124    0.0000 H   0  0  0  0  0  0  0  0  0  0  0  0
    7.5907   -9.0119    0.0000 H   0  0  0  0  0  0  0  0  0  0  0  0
    7.1145   -7.4907    0.0000 H   0  0  0  0  0  0  0  0  0  0  0  0
    4.1511  -10.6229    0.0000 H   0  0  0  0  0  0  0  0  0  0  0  0
    5.5925   -9.8535    0.0000 H   0  0  0  0  0  0  0  0  0  0  0  0
    2.1536  -10.6222    0.0000 H   0  0  0  0  0  0  0  0  0  0  0  0
    1.3357   -8.8759    0.0000 H   0  0  0  0  0  0  0  0  0  0  0  0
    2.7303   -7.7627    0.0000 H   0  0  0  0  0  0  0  0  0  0  0  0
    5.2955   -3.2844    0.0000 H   0  0  0  0  0  0  0  0  0  0  0  0
    3.7658   -1.9999    0.0000 H   0  0  0  0  0  0  0  0  0  0  0  0
    2.7818   -5.7461    0.0000 H   0  0  0  0  0  0  0  0  0  0  0  0
    1.0165   -5.4853    0.0000 H   0  0  0  0  0  0  0  0  0  0  0  0
    0.8451   -3.5646    0.0000 H   0  0  0  0  0  0  0  0  0  0  0  0
    3.9753   -0.5244    0.0000 H   0  0  0  0  0  0  0  0  0  0  0  0
    2.2562   -1.0594    0.0000 H   0  0  0  0  0  0  0  0  0  0  0  0
    1.1347   -2.0108    0.0000 H   0  0  0  0  0  0  0  0  0  0  0  0
    0.6734   -2.7201    0.0000 H   0  0  0  0  0  0  0  0  0  0  0  0
   -0.0569   -3.0326    0.0000 H   0  0  0  0  0  0  0  0  0  0  0  0
   -0.6081   -3.2908    0.0000 H   0  0  0  0  0  0  0  0  0  0  0  0
   -2.0409   -3.6222    0.0000 H   0  0  0  0  0  0  0  0  0  0  0  0
   -3.1209   -3.8902    0.0000 H   0  0  0  0  0  0  0  0  0  0  0  0
    4.1985    0.0268    0.0000 H   0  0  0  0  0  0  0  0  0  0  0  0
    4.3753    1.8024    0.0000 H   0  0  0  0  0  0  0  0  0  0  0  0
    2.9092    2.5235    0.0000 H   0  0  0  0  0  0  0  0  0  0  0  0
    3.3331    4.0264    0.0000 H   0  0  0  0  0  0  0  0  0  0  0  0
    2.8315    5.0196    0.0000 H   0  0  0  0  0  0  0  0  0  0  0  0
    2.2354    7.9241    0.0000 H   0  0  0  0  0  0  0  0  0  0  0  0
    0.7575    7.2275    0.0000 H   0  0  0  0  0  0  0  0  0  0  0  0
    3.8464    9.1509    0.0000 H   0  0  0  0  0  0  0  0  0  0  0  0
    6.9870    8.2646    0.0000 H   0  0  0  0  0  0  0  0  0  0  0  0
    7.1146    5.0037    0.0000 H   0  0  0  0  0  0  0  0  0  0  0  0
   -0.1532    8.4959    0.0000 H   0  0  0  0  0  0  0  0  0  0  0  0
   -1.1142    8.5922    0.0000 H   0  0  0  0  0  0  0  0  0  0  0  0
   -4.0095    9.9336    0.0000 H   0  0  0  0  0  0  0  0  0  0  0  0
   -4.2617    8.4781    0.0000 H   0  0  0  0  0  0  0  0  0  0  0  0
   -0.8003    9.2406    0.0000 H   0  0  0  0  0  0  0  0  0  0  0  0
   -1.8280   12.8728    0.0000 H   0  0  0  0  0  0  0  0  0  0  0  0
   -3.5984   12.6501    0.0000 H   0  0  0  0  0  0  0  0  0  0  0  0
   -3.9031   10.8919    0.0000 H   0  0  0  0  0  0  0  0  0  0  0  0
   -0.6249   12.5204    0.0000 H   0  0  0  0  0  0  0  0  0  0  0  0
    0.7454   11.3774    0.0000 H   0  0  0  0  0  0  0  0  0  0  0  0
   -0.1100    9.6491    0.0000 H   0  0  0  0  0  0  0  0  0  0  0  0
   -5.8212    8.5569    0.0000 H   0  0  0  0  0  0  0  0  0  0  0  0
   -6.6779    7.8469    0.0000 H   0  0  0  0  0  0  0  0  0  0  0  0
   -8.1149    8.2461    0.0000 H   0  0  0  0  0  0  0  0  0  0  0  0
   -9.3648    6.9849    0.0000 H   0  0  0  0  0  0  0  0  0  0  0  0
   -8.5383    5.4035    0.0000 H   0  0  0  0  0  0  0  0  0  0  0  0
   -9.4029    4.1635    0.0000 H   0  0  0  0  0  0  0  0  0  0  0  0
   -8.4891   -0.4541    0.0000 H   0  0  0  0  0  0  0  0  0  0  0  0
   -9.2213    1.1666    0.0000 H   0  0  0  0  0  0  0  0  0  0  0  0
   -7.3350   -1.9196    0.0000 H   0  0  0  0  0  0  0  0  0  0  0  0
   -8.3654   -1.1134    0.0000 H   0  0  0  0  0  0  0  0  0  0  0  0
   -5.9834   -2.9845    0.0000 H   0  0  0  0  0  0  0  0  0  0  0  0
   -7.0225   -2.5132    0.0000 H   0  0  0  0  0  0  0  0  0  0  0  0
   -5.0430   -3.5793    0.0000 H   0  0  0  0  0  0  0  0  0  0  0  0
   -6.7550    1.4441    0.0000 H   0  0  0  0  0  0  0  0  0  0  0  0
   -7.0783   -0.2599    0.0000 H   0  0  0  0  0  0  0  0  0  0  0  0
   -6.9610   -0.8346    0.0000 H   0  0  0  0  0  0  0  0  0  0  0  0
   -7.6311   -1.9007    0.0000 H   0  0  0  0  0  0  0  0  0  0  0  0
   -7.6248   -2.4872    0.0000 H   0  0  0  0  0  0  0  0  0  0  0  0
   -8.3193   -3.3280    0.0000 H   0  0  0  0  0  0  0  0  0  0  0  0
   -8.7496   -4.2171    0.0000 H   0  0  0  0  0  0  0  0  0  0  0  0
   -7.5588    6.0155    0.0000 H   0  0  0  0  0  0  0  0  0  0  0  0
   -8.1258    6.7974    0.0000 H   0  0  0  0  0  0  0  0  0  0  0  0
   -8.1829    9.1211    0.0000 H   0  0  0  0  0  0  0  0  0  0  0  0
   -7.7636    7.0991    0.0000 H   0  0  0  0  0  0  0  0  0  0  0  0
   -9.4098   10.4606    0.0000 H   0  0  0  0  0  0  0  0  0  0  0  0
  -11.0332   10.1824    0.0000 H   0  0  0  0  0  0  0  0  0  0  0  0
  -11.2277    8.2639    0.0000 H   0  0  0  0  0  0  0  0  0  0  0  0
  -11.1614    9.8832    0.0000 H   0  0  0  0  0  0  0  0  0  0  0  0
  -13.4193   10.6594    0.0000 H   0  0  0  0  0  0  0  0  0  0  0  0
  -12.0612   10.2345    0.0000 H   0  0  0  0  0  0  0  0  0  0  0  0
  -16.1006   11.2034    0.0000 H   0  0  0  0  0  0  0  0  0  0  0  0
  -17.0544   10.9464    0.0000 H   0  0  0  0  0  0  0  0  0  0  0  0
  -19.8556   11.4458    0.0000 H   0  0  0  0  0  0  0  0  0  0  0  0
  -19.7570    9.6641    0.0000 H   0  0  0  0  0  0  0  0  0  0  0  0
  -20.9937    9.7216    0.0000 H   0  0  0  0  0  0  0  0  0  0  0  0
  -21.8155    8.8976    0.0000 H   0  0  0  0  0  0  0  0  0  0  0  0
  -24.4420    7.8033    0.0000 H   0  0  0  0  0  0  0  0  0  0  0  0
  -23.3958    6.3578    0.0000 H   0  0  0  0  0  0  0  0  0  0  0  0
  -20.9569   10.5560    0.0000 H   0  0  0  0  0  0  0  0  0  0  0  0
  -22.7943   13.0657    0.0000 H   0  0  0  0  0  0  0  0  0  0  0  0
  -25.9721   13.5147    0.0000 H   0  0  0  0  0  0  0  0  0  0  0  0
  -28.6112   12.0880    0.0000 H   0  0  0  0  0  0  0  0  0  0  0  0
  -28.6951    9.0891    0.0000 H   0  0  0  0  0  0  0  0  0  0  0  0
  -26.1401    7.5170    0.0000 H   0  0  0  0  0  0  0  0  0  0  0  0
  -24.4673    5.7376    0.0000 H   0  0  0  0  0  0  0  0  0  0  0  0
  -24.5770    4.7227    0.0000 H   0  0  0  0  0  0  0  0  0  0  0  0
  -26.2244    2.1106    0.0000 H   0  0  0  0  0  0  0  0  0  0  0  0
  -24.6694    1.6090    0.0000 H   0  0  0  0  0  0  0  0  0  0  0  0
  -26.7598    5.4283    0.0000 H   0  0  0  0  0  0  0  0  0  0  0  0
  -25.2948    5.2387    0.0000 H   0  0  0  0  0  0  0  0  0  0  0  0
  -28.7758    2.6009    0.0000 H   0  0  0  0  0  0  0  0  0  0  0  0
  -27.0473    2.1578    0.0000 H   0  0  0  0  0  0  0  0  0  0  0  0
  -30.1635    4.0376    0.0000 H   0  0  0  0  0  0  0  0  0  0  0  0
  -29.4763    5.8394    0.0000 H   0  0  0  0  0  0  0  0  0  0  0  0
  -27.7067    5.6103    0.0000 H   0  0  0  0  0  0  0  0  0  0  0  0
  -25.2176    0.3257    0.0000 H   0  0  0  0  0  0  0  0  0  0  0  0
  -24.8274   -0.5818    0.0000 H   0  0  0  0  0  0  0  0  0  0  0  0
  -24.9231   -3.4256    0.0000 H   0  0  0  0  0  0  0  0  0  0  0  0
  -23.1735   -3.0744    0.0000 H   0  0  0  0  0  0  0  0  0  0  0  0
  -23.0545   -4.3067    0.0000 H   0  0  0  0  0  0  0  0  0  0  0  0
  -19.3026   -6.7500    0.0000 H   0  0  0  0  0  0  0  0  0  0  0  0
  -20.4907   -6.3332    0.0000 H   0  0  0  0  0  0  0  0  0  0  0  0
  -17.7996   -7.2713    0.0000 H   0  0  0  0  0  0  0  0  0  0  0  0
  -18.8666   -7.0460    0.0000 H   0  0  0  0  0  0  0  0  0  0  0  0
  -16.0466   -7.4578    0.0000 H   0  0  0  0  0  0  0  0  0  0  0  0
  -17.3019   -7.3587    0.0000 H   0  0  0  0  0  0  0  0  0  0  0  0
  -14.2900   -7.3092    0.0000 H   0  0  0  0  0  0  0  0  0  0  0  0
  -15.5413   -7.4495    0.0000 H   0  0  0  0  0  0  0  0  0  0  0  0
  -12.5932   -6.8309    0.0000 H   0  0  0  0  0  0  0  0  0  0  0  0
  -13.7954   -7.2054    0.0000 H   0  0  0  0  0  0  0  0  0  0  0  0
  -10.9166   -5.8873    0.0000 H   0  0  0  0  0  0  0  0  0  0  0  0
  -12.1272   -6.6354    0.0000 H   0  0  0  0  0  0  0  0  0  0  0  0
  -10.0212   -5.4701    0.0000 H   0  0  0  0  0  0  0  0  0  0  0  0
  -22.7095   -6.3830    0.0000 H   0  0  0  0  0  0  0  0  0  0  0  0
  -23.6217   -5.0275    0.0000 H   0  0  0  0  0  0  0  0  0  0  0  0
  -22.7546   -3.6428    0.0000 H   0  0  0  0  0  0  0  0  0  0  0  0
  -23.5461   -5.8700    0.0000 H   0  0  0  0  0  0  0  0  0  0  0  0
  -20.8734   -7.9575    0.0000 H   0  0  0  0  0  0  0  0  0  0  0  0
  -21.1398  -10.7639    0.0000 H   0  0  0  0  0  0  0  0  0  0  0  0
  -20.6270   -8.9050    0.0000 H   0  0  0  0  0  0  0  0  0  0  0  0
  -22.6820  -12.0334    0.0000 H   0  0  0  0  0  0  0  0  0  0  0  0
  -22.7672  -11.2063    0.0000 H   0  0  0  0  0  0  0  0  0  0  0  0
  -25.4363   -9.3314    0.0000 H   0  0  0  0  0  0  0  0  0  0  0  0
  -26.5360  -12.4249    0.0000 H   0  0  0  0  0  0  0  0  0  0  0  0
  -29.0940   -9.6197    0.0000 H   0  0  0  0  0  0  0  0  0  0  0  0
  -27.9626   -8.2513    0.0000 H   0  0  0  0  0  0  0  0  0  0  0  0
  -26.3072   -8.9174    0.0000 H   0  0  0  0  0  0  0  0  0  0  0  0
  -29.1663  -12.6147    0.0000 H   0  0  0  0  0  0  0  0  0  0  0  0
  -27.4034  -12.8915    0.0000 H   0  0  0  0  0  0  0  0  0  0  0  0
  -30.6843  -11.3164    0.0000 H   0  0  0  0  0  0  0  0  0  0  0  0
  -30.1715   -9.4575    0.0000 H   0  0  0  0  0  0  0  0  0  0  0  0
  -28.5383   -9.4124    0.0000 H   0  0  0  0  0  0  0  0  0  0  0  0
  1  2  1  0
  2  3  1  0
  3  4  2  0
  4  5  1  0
  5  6  2  0
  6  7  1  0
  7  8  2  0
  7  9  1  0
  9 10  1  0
 10 11  1  0
 11 12  2  0
  9 13  1  0
 13 14  1  0
 14 15  2  0
 15 16  1  0
 16 17  2  0
 17 18  1  0
 16 19  1  0
 14 20  1  0
 20 21  1  0
 21 22  2  0
 22 23  1  0
 23 24  2  0
 24 25  1  0
 25 26  2  0
 25 27  1  0
  1 28  2  0
  1 29  1  0
 29 30  1  0
 30 31  1  0
 31 32  1  0
 32 33  2  0
 32 34  1  0
 34 35  1  0
 35 36  1  0
 36 37  1  0
 37 38  1  0
 38 39  2  0
 38 40  1  0
 35 41  1  0
 41 42  2  0
 41 43  1  0
 43 44  1  0
 44 45  1  0
 45 46  1  0
 46 47  2  0
 46 48  1  0
 44 49  1  0
 49 50  2  0
 49 51  1  0
 51 52  1  0
 52 53  1  0
 53 54  1  0
 53 55  1  0
 55 56  1  0
 52 57  1  0
 57 58  2  0
 57 59  1  0
 59 60  1  0
 60 61  1  0
 61 62  1  0
 61 63  1  0
 63 64  1  0
 60 65  1  0
 65 66  2  0
 65 67  1  0
 67 68  1  0
 68 69  1  0
 69 70  1  0
 70 71  1  0
 71 72  1  0
 72 73  1  0
 73 74  2  3
 73 75  1  0
 68 76  1  0
 76 77  2  0
 76 78  1  0
 78 79  1  0
 79 80  1  0
 80 81  1  0
 81 82  1  0
 81 83  2  0
 79 84  1  0
 84 85  2  0
 84 86  1  0
 86 87  1  0
 87 88  1  0
 88 89  1  0
 88 90  1  0
 90 91  1  0
 87 92  1  0
 92 93  2  0
 92 94  1  0
 94 95  1  0
 95 96  1  0
 95 97  1  0
 97 98  2  0
 97 99  1  0
100 99  1  1
100101  1  0
101102  1  0
102103  1  0
103104  1  0
100105  1  0
100106  1  0
106107  2  0
106108  1  0
108109  1  0
109110  1  0
110111  1  0
111112  2  0
112113  1  0
113114  1  0
114115  2  0
109116  1  0
116117  2  0
116118  1  0
118119  1  0
119120  1  0
120121  1  0
121122  1  0
121123  1  0
119124  1  0
124125  2  0
124126  1  0
126127  1  0
127128  1  0
127129  1  0
129130  2  0
129131  1  0
131132  1  0
132133  1  0
133134  1  0
134135  1  0
135136  1  0
132137  1  0
137138  1  0
138139  1  0
139140  1  0
132141  1  0
141142  2  0
141143  1  0
143144  1  0
144145  1  0
145146  1  0
144147  1  0
147148  2  0
147149  1  0
149150  1  0
150151  1  0
151152  2  0
151153  1  0
153154  1  0
154155  1  0
155156  1  0
156157  2  0
156158  1  0
154159  1  0
159160  2  0
159161  1  0
161162  1  0
162163  1  0
163164  1  0
164165  2  0
165166  1  0
166167  1  0
167168  2  0
168169  1  0
169170  2  0
170171  1  0
171172  2  0
162173  1  0
173174  2  0
173175  1  0
175176  1  0
176177  1  0
177178  1  0
178179  1  0
179180  1  0
176181  1  0
181182  2  0
181183  1  0
183184  1  0
184185  1  0
185186  1  0
186187  2  0
186188  1  0
184189  1  0
189190  2  0
189191  1  0
191192  1  0
192193  1  0
193194  1  0
194195  1  0
195196  1  0
196197  1  0
197198  1  0
198199  1  0
192200  1  0
192201  1  1
201202  2  0
201203  1  0
203204  1  0
204205  1  0
205206  1  0
204207  1  0
207208  2  0
207209  1  0
209210  1  0
210211  1  0
211212  1  0
211213  1  0
213214  1  0
210215  1  0
215216  2  0
215217  1  0
  8  3  1  0
115111  1  0
172164  1  0
 11  6  1  0
172167  1  0
 18 13  2  0
104136  2  0
 22  9  1  0
140199  2  0
 26 21  1  0
  2218  1  0
  4219  1  0
  5220  1  0
  8221  1  0
 15222  1  0
 17223  1  0
 18224  1  0
 19225  1  0
 23226  1  0
 24227  1  0
 26228  1  0
 27229  1  0
 29230  1  0
 30231  1  0
 30232  1  0
 31233  1  0
 31234  1  0
 34235  1  0
 35236  1  1
 36237  1  0
 36238  1  0
 37239  1  0
 37240  1  0
 43241  1  0
 44242  1  1
 45243  1  0
 45244  1  0
 51245  1  0
 52246  1  1
 53247  1  6
 54248  1  0
 54249  1  0
 54250  1  0
 55251  1  0
 55252  1  0
 56253  1  0
 56254  1  0
 56255  1  0
 59256  1  0
 60257  1  1
 61258  1  6
 62259  1  0
 62260  1  0
 62261  1  0
 63262  1  0
 63263  1  0
 64264  1  0
 64265  1  0
 64266  1  0
 67267  1  0
 68268  1  1
 69269  1  0
 69270  1  0
 70271  1  0
 70272  1  0
 71273  1  0
 71274  1  0
 72275  1  0
 74276  1  0
 74277  1  0
 75278  1  0
 75279  1  0
 78280  1  0
 79281  1  1
 80282  1  0
 80283  1  0
 82284  1  0
 82285  1  0
 86286  1  0
 87287  1  1
 88288  1  6
 89289  1  0
 89290  1  0
 89291  1  0
 90292  1  0
 90293  1  0
 91294  1  0
 91295  1  0
 91296  1  0
 94297  1  0
 95298  1  1
 96299  1  0
 96300  1  0
 96301  1  0
 99302  1  0
101303  1  0
101304  1  0
102305  1  0
102306  1  0
103307  1  0
103308  1  0
104309  1  0
105310  1  0
105311  1  0
105312  1  0
108313  1  0
109314  1  6
110315  1  0
110316  1  0
112317  1  0
113318  1  0
114319  1  0
118320  1  0
119321  1  6
120322  1  0
120323  1  0
121324  1  0
122325  1  0
122326  1  0
122327  1  0
123328  1  0
123329  1  0
123330  1  0
126331  1  0
127332  1  6
128333  1  0
128334  1  0
128335  1  0
131336  1  0
133337  1  0
133338  1  0
134339  1  0
134340  1  0
135341  1  0
135342  1  0
136343  1  0
137344  1  0
137345  1  0
138346  1  0
138347  1  0
139348  1  0
139349  1  0
140350  1  0
143351  1  0
144352  1  6
145353  1  0
145354  1  0
146355  1  0
146356  1  0
146357  1  0
149358  1  0
150359  1  0
150360  1  0
153361  1  0
154362  1  6
155363  1  0
155364  1  0
161365  1  0
162366  1  6
163367  1  0
163368  1  0
165369  1  0
166370  1  0
168371  1  0
169372  1  0
170373  1  0
171374  1  0
175375  1  0
176376  1  1
177377  1  0
177378  1  0
178379  1  0
178380  1  0
179381  1  0
179382  1  0
180383  1  0
180384  1  0
180385  1  0
183386  1  0
184387  1  6
185388  1  0
185389  1  0
191390  1  0
193391  1  0
193392  1  0
194393  1  0
194394  1  0
195395  1  0
195396  1  0
196397  1  0
196398  1  0
197399  1  0
197400  1  0
198401  1  0
198402  1  0
199403  1  0
200404  1  0
200405  1  0
200406  1  0
203407  1  0
204408  1  1
205409  1  0
205410  1  0
206411  1  0
209412  1  0
210413  1  6
211414  1  1
212415  1  0
212416  1  0
212417  1  0
213418  1  0
213419  1  0
214420  1  0
214421  1  0
214422  1  0
M  CHG  6  40  -1  48  -1  74   1 158  -1 188  -1 217  -1
M  END
