
     RDKit          2D

301308  0  0  0  0  0  0  0  0999 V2000
   20.1195   -3.5891    0.0000 C   0  0  0  0  0  0  0  0  0  0  0  0
   21.4574   -2.9109    0.0000 N   0  0  0  0  0  0  0  0  0  0  0  0
   22.7137   -3.7304    0.0000 C   0  0  0  0  0  0  0  0  0  0  0  0
   22.6322   -5.2282    0.0000 C   0  0  0  0  0  0  0  0  0  0  0  0
   23.8885   -6.0477    0.0000 C   0  0  0  0  0  0  0  0  0  0  0  0
   25.2264   -5.3694    0.0000 C   0  0  0  0  0  0  0  0  0  0  0  0
   25.3080   -3.8716    0.0000 C   0  0  0  0  0  0  0  0  0  0  0  0
   24.0516   -3.0521    0.0000 C   0  0  0  0  0  0  0  0  0  0  0  0
   26.7576   -3.4863    0.0000 C   0  0  0  0  0  0  0  0  0  0  0  0
   27.5720   -4.7460    0.0000 O   0  0  0  0  0  0  0  0  0  0  0  0
   26.6257   -5.9098    0.0000 C   0  0  0  0  0  0  0  0  0  0  0  0
   27.0110   -7.3595    0.0000 O   0  0  0  0  0  0  0  0  0  0  0  0
   28.2396   -3.2547    0.0000 C   0  0  0  0  0  0  0  0  0  0  0  0
   28.7800   -1.8554    0.0000 C   0  0  0  0  0  0  0  0  0  0  0  0
   30.2620   -1.6238    0.0000 C   0  0  0  0  0  0  0  0  0  0  0  0
   31.2037   -2.7914    0.0000 C   0  0  0  0  0  0  0  0  0  0  0  0
   30.6633   -4.1907    0.0000 C   0  0  0  0  0  0  0  0  0  0  0  0
   29.1812   -4.4223    0.0000 C   0  0  0  0  0  0  0  0  0  0  0  0
   32.6857   -2.5598    0.0000 O   0  0  0  0  0  0  0  0  0  0  0  0
   27.8384   -0.6878    0.0000 O   0  0  0  0  0  0  0  0  0  0  0  0
   26.3564   -0.9194    0.0000 C   0  0  0  0  0  0  0  0  0  0  0  0
   25.8160   -2.3187    0.0000 C   0  0  0  0  0  0  0  0  0  0  0  0
   24.5862   -1.8974    0.0000 C   0  0  0  0  0  0  0  0  0  0  0  0
   24.0840   -1.2746    0.0000 C   0  0  0  0  0  0  0  0  0  0  0  0
   24.3722   -0.5283    0.0000 C   0  0  0  0  0  0  0  0  0  0  0  0
   25.1626   -0.4048    0.0000 C   0  0  0  0  0  0  0  0  0  0  0  0
   22.9912    1.1842    0.0000 O   0  0  0  0  0  0  0  0  0  0  0  0
   20.0379   -5.0869    0.0000 S   0  0  0  0  0  0  0  0  0  0  0  0
   18.8631   -2.7696    0.0000 N   0  0  0  0  0  0  0  0  0  0  0  0
   17.5253   -3.4479    0.0000 C   0  0  0  0  0  0  0  0  0  0  0  0
   16.2689   -2.6284    0.0000 C   0  0  0  0  0  0  0  0  0  0  0  0
   14.9310   -3.3066    0.0000 C   0  0  0  0  0  0  0  0  0  0  0  0
   15.0816   -4.0895    0.0000 O   0  0  0  0  0  0  0  0  0  0  0  0
   13.6747   -2.4871    0.0000 N   0  0  0  0  0  0  0  0  0  0  0  0
   12.3368   -3.1654    0.0000 C   0  0  0  0  0  0  0  0  0  0  0  0
   13.2371   -4.3652    0.0000 C   0  0  0  0  0  0  0  0  0  0  0  0
   14.7263   -4.1854    0.0000 C   0  0  0  0  0  0  0  0  0  0  0  0
   15.6265   -5.3852    0.0000 N   0  0  0  0  0  0  0  0  0  0  0  0
   15.6315   -2.9893    0.0000 O   0  0  0  0  0  0  0  0  0  0  0  0
   10.8476   -3.3452    0.0000 C   0  0  0  0  0  0  0  0  0  0  0  0
   10.6100   -4.8262    0.0000 O   0  0  0  0  0  0  0  0  0  0  0  0
    9.9473   -2.1454    0.0000 N   0  0  0  0  0  0  0  0  0  0  0  0
    8.4581   -2.3252    0.0000 C   0  0  0  0  0  0  0  0  0  0  0  0
    8.8938   -3.7605    0.0000 C   0  0  0  0  0  0  0  0  0  0  0  0
   10.3546   -4.1009    0.0000 C   0  0  0  0  0  0  0  0  0  0  0  0
   10.7903   -5.5363    0.0000 C   0  0  0  0  0  0  0  0  0  0  0  0
   12.1988   -6.0522    0.0000 O   0  0  0  0  0  0  0  0  0  0  0  0
    9.7651   -6.6312    0.0000 O   0  0  0  0  0  0  0  0  0  0  0  0
    6.9973   -1.9848    0.0000 C   0  0  0  0  0  0  0  0  0  0  0  0
    6.2675   -3.2953    0.0000 O   0  0  0  0  0  0  0  0  0  0  0  0
    6.5616   -0.5494    0.0000 N   0  0  0  0  0  0  0  0  0  0  0  0
    5.1008   -0.2090    0.0000 C   0  0  0  0  0  0  0  0  0  0  0  0
    5.0192   -1.7068    0.0000 C   0  0  0  0  0  0  0  0  0  0  0  0
    6.2755   -2.5263    0.0000 C   0  0  0  0  0  0  0  0  0  0  0  0
    6.1940   -4.0241    0.0000 C   0  0  0  0  0  0  0  0  0  0  0  0
    7.7364   -2.8667    0.0000 C   0  0  0  0  0  0  0  0  0  0  0  0
    3.8444    0.6105    0.0000 C   0  0  0  0  0  0  0  0  0  0  0  0
    2.7104   -0.3714    0.0000 O   0  0  0  0  0  0  0  0  0  0  0  0
    3.9260    2.1083    0.0000 N   0  0  0  0  0  0  0  0  0  0  0  0
    2.6696    2.9278    0.0000 C   0  0  0  0  0  0  0  0  0  0  0  0
    2.4932    1.4382    0.0000 C   0  0  0  0  0  0  0  0  0  0  0  0
    2.0381    0.0089    0.0000 C   0  0  0  0  0  0  0  0  0  0  0  0
    1.3208   -1.3084    0.0000 C   0  0  0  0  0  0  0  0  0  0  0  0
    0.3670   -2.4662    0.0000 C   0  0  0  0  0  0  0  0  0  0  0  0
   -0.7885   -3.4226    0.0000 C   0  0  0  0  0  0  0  0  0  0  0  0
   -2.1042   -4.1429    0.0000 C   0  0  0  0  0  0  0  0  0  0  0  0
   -3.5325   -4.6013    0.0000 C   0  0  0  0  0  0  0  0  0  0  0  0
    3.9618    3.6895    0.0000 C   0  0  0  0  0  0  0  0  0  0  0  0
    2.5609    4.4238    0.0000 C   0  0  0  0  0  0  0  0  0  0  0  0
    3.9983    4.8527    0.0000 O   0  0  0  0  0  0  0  0  0  0  0  0
    2.1710    5.8723    0.0000 N   0  0  0  0  0  0  0  0  0  0  0  0
    1.5141    7.2208    0.0000 C   0  0  0  0  0  0  0  0  0  0  0  0
    2.1893    8.5602    0.0000 C   0  0  0  0  0  0  0  0  0  0  0  0
    3.6869    8.6452    0.0000 C   0  0  0  0  0  0  0  0  0  0  0  0
    4.3621    9.9846    0.0000 C   0  0  0  0  0  0  0  0  0  0  0  0
    5.8597   10.0696    0.0000 N   0  0  0  0  0  0  0  0  0  0  0  0
    6.5349   11.4090    0.0000 C   0  0  0  0  0  0  0  0  0  0  0  0
    8.0325   11.4940    0.0000 N   0  0  0  0  0  0  0  0  0  0  0  0
    5.7125   12.6635    0.0000 N   0  0  0  0  0  0  0  0  0  0  0  0
    0.6138    8.4205    0.0000 C   0  0  0  0  0  0  0  0  0  0  0  0
    1.5911    9.5584    0.0000 O   0  0  0  0  0  0  0  0  0  0  0  0
   -0.4973    9.4283    0.0000 N   0  0  0  0  0  0  0  0  0  0  0  0
   -1.7790   10.2075    0.0000 C   0  0  0  0  0  0  0  0  0  0  0  0
   -1.9351   11.6994    0.0000 C   0  0  0  0  0  0  0  0  0  0  0  0
   -0.7212   12.5805    0.0000 O   0  0  0  0  0  0  0  0  0  0  0  0
   -3.1850   10.7301    0.0000 C   0  0  0  0  0  0  0  0  0  0  0  0
   -2.9780   12.2157    0.0000 O   0  0  0  0  0  0  0  0  0  0  0  0
   -4.6646   10.9772    0.0000 N   0  0  0  0  0  0  0  0  0  0  0  0
   -6.1641   10.9398    0.0000 C   0  0  0  0  0  0  0  0  0  0  0  0
   -7.1020   12.1104    0.0000 C   0  0  0  0  0  0  0  0  0  0  0  0
   -6.5572   13.5079    0.0000 C   0  0  0  0  0  0  0  0  0  0  0  0
   -5.0744   13.7349    0.0000 C   0  0  0  0  0  0  0  0  0  0  0  0
   -4.5296   15.1324    0.0000 C   0  0  0  0  0  0  0  0  0  0  0  0
   -5.4675   16.3030    0.0000 C   0  0  0  0  0  0  0  0  0  0  0  0
   -6.9502   16.0761    0.0000 C   0  0  0  0  0  0  0  0  0  0  0  0
   -7.4951   14.6785    0.0000 C   0  0  0  0  0  0  0  0  0  0  0  0
   -7.6294   10.6192    0.0000 C   0  0  0  0  0  0  0  0  0  0  0  0
   -8.2585   11.9810    0.0000 O   0  0  0  0  0  0  0  0  0  0  0  0
   -9.0077   10.0272    0.0000 N   0  0  0  0  0  0  0  0  0  0  0  0
  -10.2489    9.1850    0.0000 C   0  0  0  0  0  0  0  0  0  0  0  0
  -11.6708    9.6627    0.0000 C   0  0  0  0  0  0  0  0  0  0  0  0
  -11.9680   11.1330    0.0000 C   0  0  0  0  0  0  0  0  0  0  0  0
  -10.8434   12.1255    0.0000 C   0  0  0  0  0  0  0  0  0  0  0  0
  -11.1406   13.5958    0.0000 C   0  0  0  0  0  0  0  0  0  0  0  0
  -12.5625   14.0735    0.0000 C   0  0  0  0  0  0  0  0  0  0  0  0
  -13.6872   13.0810    0.0000 C   0  0  0  0  0  0  0  0  0  0  0  0
  -13.3899   11.6107    0.0000 C   0  0  0  0  0  0  0  0  0  0  0  0
  -11.3084    8.1231    0.0000 C   0  0  0  0  0  0  0  0  0  0  0  0
  -12.5738    8.9286    0.0000 O   0  0  0  0  0  0  0  0  0  0  0  0
  -12.1477    6.8800    0.0000 N   0  0  0  0  0  0  0  0  0  0  0  0
  -12.7366    5.5004    0.0000 C   0  0  0  0  0  0  0  0  0  0  0  0
  -14.1911    5.1335    0.0000 C   0  0  0  0  0  0  0  0  0  0  0  0
  -15.2360    6.2097    0.0000 O   0  0  0  0  0  0  0  0  0  0  0  0
  -13.0538    4.0343    0.0000 C   0  0  0  0  0  0  0  0  0  0  0  0
  -14.5538    4.0278    0.0000 O   0  0  0  0  0  0  0  0  0  0  0  0
  -13.0878    2.5347    0.0000 N   0  0  0  0  0  0  0  0  0  0  0  0
  -12.8373    1.0557    0.0000 C   0  0  0  0  0  0  0  0  0  0  0  0
  -13.8626   -0.0392    0.0000 C   0  0  0  0  0  0  0  0  0  0  0  0
  -15.3234    0.3012    0.0000 C   0  0  0  0  0  0  0  0  0  0  0  0
  -16.3487   -0.7938    0.0000 C   0  0  0  0  0  0  0  0  0  0  0  0
  -16.5798    1.1207    0.0000 C   0  0  0  0  0  0  0  0  0  0  0  0
  -12.3115   -0.3491    0.0000 C   0  0  0  0  0  0  0  0  0  0  0  0
  -13.5699   -1.1655    0.0000 O   0  0  0  0  0  0  0  0  0  0  0  0
  -11.5294   -1.6290    0.0000 N   0  0  0  0  0  0  0  0  0  0  0  0
  -10.5191   -2.7378    0.0000 C   0  0  0  0  0  0  0  0  0  0  0  0
   -9.3173   -3.6353    0.0000 C   0  0  0  0  0  0  0  0  0  0  0  0
   -7.9673   -4.2892    0.0000 C   0  0  0  0  0  0  0  0  0  0  0  0
   -6.5180   -4.6758    0.0000 C   0  0  0  0  0  0  0  0  0  0  0  0
   -5.0217   -4.7811    0.0000 C   0  0  0  0  0  0  0  0  0  0  0  0
  -11.9612   -3.1506    0.0000 C   0  0  0  0  0  0  0  0  0  0  0  0
  -10.7896   -4.2132    0.0000 C   0  0  0  0  0  0  0  0  0  0  0  0
   -9.9163   -5.4327    0.0000 O   0  0  0  0  0  0  0  0  0  0  0  0
  -12.2026   -4.7166    0.0000 N   0  0  0  0  0  0  0  0  0  0  0  0
  -12.4731   -6.1920    0.0000 C   0  0  0  0  0  0  0  0  0  0  0  0
  -12.2227   -7.6710    0.0000 C   0  0  0  0  0  0  0  0  0  0  0  0
  -13.3783   -8.6273    0.0000 C   0  0  0  0  0  0  0  0  0  0  0  0
  -13.1278  -10.1063    0.0000 O   0  0  0  0  0  0  0  0  0  0  0  0
  -14.8690   -8.4605    0.0000 O   0  0  0  0  0  0  0  0  0  0  0  0
  -13.8861   -6.6955    0.0000 C   0  0  0  0  0  0  0  0  0  0  0  0
  -15.0286   -5.7235    0.0000 O   0  0  0  0  0  0  0  0  0  0  0  0
  -14.1566   -8.1709    0.0000 N   0  0  0  0  0  0  0  0  0  0  0  0
  -15.5696   -8.6743    0.0000 C   0  0  0  0  0  0  0  0  0  0  0  0
  -17.0696   -8.6642    0.0000 C   0  0  0  0  0  0  0  0  0  0  0  0
  -17.8284   -9.9581    0.0000 C   0  0  0  0  0  0  0  0  0  0  0  0
  -19.3283   -9.9479    0.0000 C   0  0  0  0  0  0  0  0  0  0  0  0
  -20.2392  -11.1397    0.0000 N   0  0  0  0  0  0  0  0  0  0  0  0
  -20.0695   -8.6438    0.0000 O   0  0  0  0  0  0  0  0  0  0  0  0
  -15.8401  -10.1498    0.0000 C   0  0  0  0  0  0  0  0  0  0  0  0
  -14.6976  -11.1217    0.0000 O   0  0  0  0  0  0  0  0  0  0  0  0
  -17.2531  -10.6532    0.0000 N   0  0  0  0  0  0  0  0  0  0  0  0
  -17.5236  -12.1286    0.0000 C   0  0  0  0  0  0  0  0  0  0  0  0
  -17.2732  -13.6076    0.0000 C   0  0  0  0  0  0  0  0  0  0  0  0
  -18.4287  -14.5639    0.0000 C   0  0  0  0  0  0  0  0  0  0  0  0
  -16.5320  -14.9117    0.0000 C   0  0  0  0  0  0  0  0  0  0  0  0
  -15.0320  -14.9218    0.0000 C   0  0  0  0  0  0  0  0  0  0  0  0
  -18.9366  -12.6321    0.0000 C   0  0  0  0  0  0  0  0  0  0  0  0
  -19.3849  -14.0635    0.0000 O   0  0  0  0  0  0  0  0  0  0  0  0
  -20.1890  -11.8066    0.0000 O   0  0  0  0  0  0  0  0  0  0  0  0
   21.3557   -1.4143    0.0000 H   0  0  0  0  0  0  0  0  0  0  0  0
   21.2943   -5.9064    0.0000 H   0  0  0  0  0  0  0  0  0  0  0  0
   23.8070   -7.5455    0.0000 H   0  0  0  0  0  0  0  0  0  0  0  0
   23.7683   -1.5791    0.0000 H   0  0  0  0  0  0  0  0  0  0  0  0
   30.8024   -0.2245    0.0000 H   0  0  0  0  0  0  0  0  0  0  0  0
   31.6049   -5.3583    0.0000 H   0  0  0  0  0  0  0  0  0  0  0  0
   28.6409   -5.8216    0.0000 H   0  0  0  0  0  0  0  0  0  0  0  0
   33.6273   -3.7274    0.0000 H   0  0  0  0  0  0  0  0  0  0  0  0
   23.7936   -3.9496    0.0000 H   0  0  0  0  0  0  0  0  0  0  0  0
   21.8932   -1.4320    0.0000 H   0  0  0  0  0  0  0  0  0  0  0  0
   25.9552    1.6475    0.0000 H   0  0  0  0  0  0  0  0  0  0  0  0
   23.5316    2.5835    0.0000 H   0  0  0  0  0  0  0  0  0  0  0  0
   18.9447   -1.2718    0.0000 H   0  0  0  0  0  0  0  0  0  0  0  0
   18.4255   -4.6477    0.0000 H   0  0  0  0  0  0  0  0  0  0  0  0
   16.6411   -4.6596    0.0000 H   0  0  0  0  0  0  0  0  0  0  0  0
   17.2941   -1.5334    0.0000 H   0  0  0  0  0  0  0  0  0  0  0  0
   15.3686   -1.4286    0.0000 H   0  0  0  0  0  0  0  0  0  0  0  0
   13.7562   -0.9893    0.0000 H   0  0  0  0  0  0  0  0  0  0  0  0
   11.9011   -1.7301    0.0000 H   0  0  0  0  0  0  0  0  0  0  0  0
   13.6727   -5.8005    0.0000 H   0  0  0  0  0  0  0  0  0  0  0  0
   11.9918   -5.2015    0.0000 H   0  0  0  0  0  0  0  0  0  0  0  0
   17.1265   -5.3883    0.0000 H   0  0  0  0  0  0  0  0  0  0  0  0
   15.0376   -6.7648    0.0000 H   0  0  0  0  0  0  0  0  0  0  0  0
   10.5362   -0.7658    0.0000 H   0  0  0  0  0  0  0  0  0  0  0  0
    8.7216   -0.8485    0.0000 H   0  0  0  0  0  0  0  0  0  0  0  0
    8.8122   -5.2583    0.0000 H   0  0  0  0  0  0  0  0  0  0  0  0
    7.4923   -4.2953    0.0000 H   0  0  0  0  0  0  0  0  0  0  0  0
   11.8438   -3.9211    0.0000 H   0  0  0  0  0  0  0  0  0  0  0  0
   10.7962   -2.6674    0.0000 H   0  0  0  0  0  0  0  0  0  0  0  0
    7.5868    0.5455    0.0000 H   0  0  0  0  0  0  0  0  0  0  0  0
    5.6897    1.1705    0.0000 H   0  0  0  0  0  0  0  0  0  0  0  0
    4.2665   -3.0043    0.0000 H   0  0  0  0  0  0  0  0  0  0  0  0
    3.5583   -1.3664    0.0000 H   0  0  0  0  0  0  0  0  0  0  0  0
    7.1808   -1.3303    0.0000 H   0  0  0  0  0  0  0  0  0  0  0  0
    7.2147   -5.1233    0.0000 H   0  0  0  0  0  0  0  0  0  0  0  0
    5.6051   -5.4037    0.0000 H   0  0  0  0  0  0  0  0  0  0  0  0
    4.7025   -3.8643    0.0000 H   0  0  0  0  0  0  0  0  0  0  0  0
    8.1721   -4.3021    0.0000 H   0  0  0  0  0  0  0  0  0  0  0  0
    9.2248   -3.0526    0.0000 H   0  0  0  0  0  0  0  0  0  0  0  0
    7.6348   -1.3702    0.0000 H   0  0  0  0  0  0  0  0  0  0  0  0
    5.3365    2.6184    0.0000 H   0  0  0  0  0  0  0  0  0  0  0  0
    3.9861    1.5848    0.0000 H   0  0  0  0  0  0  0  0  0  0  0  0
    3.4367    0.2720    0.0000 H   0  0  0  0  0  0  0  0  0  0  0  0
    3.5037   -0.3107    0.0000 H   0  0  0  0  0  0  0  0  0  0  0  0
    2.8999   -1.2189    0.0000 H   0  0  0  0  0  0  0  0  0  0  0  0
    2.8197   -1.3662    0.0000 H   0  0  0  0  0  0  0  0  0  0  0  0
    2.0969   -2.5921    0.0000 H   0  0  0  0  0  0  0  0  0  0  0  0
    1.7755   -2.9821    0.0000 H   0  0  0  0  0  0  0  0  0  0  0  0
    0.8862   -3.8735    0.0000 H   0  0  0  0  0  0  0  0  0  0  0  0
    0.4968   -4.1957    0.0000 H   0  0  0  0  0  0  0  0  0  0  0  0
   -0.5451   -4.9027    0.0000 H   0  0  0  0  0  0  0  0  0  0  0  0
   -0.9884   -5.1454    0.0000 H   0  0  0  0  0  0  0  0  0  0  0  0
   -2.3278   -5.6262    0.0000 H   0  0  0  0  0  0  0  0  0  0  0  0
   -3.2120   -6.0667    0.0000 H   0  0  0  0  0  0  0  0  0  0  0  0
    5.3478    3.1160    0.0000 H   0  0  0  0  0  0  0  0  0  0  0  0
    5.0495    4.7224    0.0000 H   0  0  0  0  0  0  0  0  0  0  0  0
    3.2921    5.0317    0.0000 H   0  0  0  0  0  0  0  0  0  0  0  0
    3.6295    6.2229    0.0000 H   0  0  0  0  0  0  0  0  0  0  0  0
    3.0016    7.0278    0.0000 H   0  0  0  0  0  0  0  0  0  0  0  0
    2.3657   10.0498    0.0000 H   0  0  0  0  0  0  0  0  0  0  0  0
    0.9002    9.3273    0.0000 H   0  0  0  0  0  0  0  0  0  0  0  0
    5.1232    8.2128    0.0000 H   0  0  0  0  0  0  0  0  0  0  0  0
    3.8762    7.1572    0.0000 H   0  0  0  0  0  0  0  0  0  0  0  0
    4.5385   11.4742    0.0000 H   0  0  0  0  0  0  0  0  0  0  0  0
    2.9892   10.5888    0.0000 H   0  0  0  0  0  0  0  0  0  0  0  0
    6.6820    8.8151    0.0000 H   0  0  0  0  0  0  0  0  0  0  0  0
    8.7077   12.8334    0.0000 H   0  0  0  0  0  0  0  0  0  0  0  0
    8.8549   10.2395    0.0000 H   0  0  0  0  0  0  0  0  0  0  0  0
    6.3877   14.0029    0.0000 H   0  0  0  0  0  0  0  0  0  0  0  0
    4.2149   12.5785    0.0000 H   0  0  0  0  0  0  0  0  0  0  0  0
    0.4002   10.6301    0.0000 H   0  0  0  0  0  0  0  0  0  0  0  0
   -0.5117   11.0099    0.0000 H   0  0  0  0  0  0  0  0  0  0  0  0
   -2.4228   13.1179    0.0000 H   0  0  0  0  0  0  0  0  0  0  0  0
   -3.4343   11.6478    0.0000 H   0  0  0  0  0  0  0  0  0  0  0  0
   -0.8774   14.0724    0.0000 H   0  0  0  0  0  0  0  0  0  0  0  0
   -4.3776   12.4495    0.0000 H   0  0  0  0  0  0  0  0  0  0  0  0
   -5.5317   12.2999    0.0000 H   0  0  0  0  0  0  0  0  0  0  0  0
   -8.2792   13.0400    0.0000 H   0  0  0  0  0  0  0  0  0  0  0  0
   -8.3352   11.2565    0.0000 H   0  0  0  0  0  0  0  0  0  0  0  0
   -4.0008   12.6873    0.0000 H   0  0  0  0  0  0  0  0  0  0  0  0
   -3.0468   15.3593    0.0000 H   0  0  0  0  0  0  0  0  0  0  0  0
   -4.9226   17.7006    0.0000 H   0  0  0  0  0  0  0  0  0  0  0  0
   -7.8881   17.2467    0.0000 H   0  0  0  0  0  0  0  0  0  0  0  0
   -8.9778   14.4516    0.0000 H   0  0  0  0  0  0  0  0  0  0  0  0
   -9.5623   11.4209    0.0000 H   0  0  0  0  0  0  0  0  0  0  0  0
  -10.4523   10.6712    0.0000 H   0  0  0  0  0  0  0  0  0  0  0  0
  -13.1637    9.8084    0.0000 H   0  0  0  0  0  0  0  0  0  0  0  0
  -12.2466    8.2776    0.0000 H   0  0  0  0  0  0  0  0  0  0  0  0
   -9.3739   11.8247    0.0000 H   0  0  0  0  0  0  0  0  0  0  0  0
  -10.0159   14.5883    0.0000 H   0  0  0  0  0  0  0  0  0  0  0  0
  -12.8597   15.5437    0.0000 H   0  0  0  0  0  0  0  0  0  0  0  0
  -15.1091   13.5587    0.0000 H   0  0  0  0  0  0  0  0  0  0  0  0
  -14.5146   10.6182    0.0000 H   0  0  0  0  0  0  0  0  0  0  0  0
  -13.4651    7.5973    0.0000 H   0  0  0  0  0  0  0  0  0  0  0  0
  -13.7112    6.6407    0.0000 H   0  0  0  0  0  0  0  0  0  0  0  0
  -15.5257    4.4489    0.0000 H   0  0  0  0  0  0  0  0  0  0  0  0
  -13.9266    3.6570    0.0000 H   0  0  0  0  0  0  0  0  0  0  0  0
  -16.6904    5.8428    0.0000 H   0  0  0  0  0  0  0  0  0  0  0  0
  -14.5859    2.6091    0.0000 H   0  0  0  0  0  0  0  0  0  0  0  0
  -14.2103    1.6600    0.0000 H   0  0  0  0  0  0  0  0  0  0  0  0
  -14.4515   -1.4188    0.0000 H   0  0  0  0  0  0  0  0  0  0  0  0
  -12.8419   -1.1384    0.0000 H   0  0  0  0  0  0  0  0  0  0  0  0
  -15.0859    1.7823    0.0000 H   0  0  0  0  0  0  0  0  0  0  0  0
  -17.8401   -0.6340    0.0000 H   0  0  0  0  0  0  0  0  0  0  0  0
  -16.9376   -2.1733    0.0000 H   0  0  0  0  0  0  0  0  0  0  0  0
  -15.2016   -1.7603    0.0000 H   0  0  0  0  0  0  0  0  0  0  0  0
  -17.9904    0.6106    0.0000 H   0  0  0  0  0  0  0  0  0  0  0  0
  -17.4801    2.3205    0.0000 H   0  0  0  0  0  0  0  0  0  0  0  0
  -15.5546    2.2157    0.0000 H   0  0  0  0  0  0  0  0  0  0  0  0
  -12.8300   -2.3763    0.0000 H   0  0  0  0  0  0  0  0  0  0  0  0
   -9.3037   -5.1353    0.0000 H   0  0  0  0  0  0  0  0  0  0  0  0
  -10.4513   -4.6172    0.0000 H   0  0  0  0  0  0  0  0  0  0  0  0
   -7.8515   -5.7847    0.0000 H   0  0  0  0  0  0  0  0  0  0  0  0
   -8.8950   -5.4679    0.0000 H   0  0  0  0  0  0  0  0  0  0  0  0
   -5.9479   -6.0632    0.0000 H   0  0  0  0  0  0  0  0  0  0  0  0
   -7.3632   -5.9150    0.0000 H   0  0  0  0  0  0  0  0  0  0  0  0
   -4.9843   -6.2806    0.0000 H   0  0  0  0  0  0  0  0  0  0  0  0
  -12.6661   -4.4747    0.0000 H   0  0  0  0  0  0  0  0  0  0  0  0
  -13.4575   -3.0453    0.0000 H   0  0  0  0  0  0  0  0  0  0  0  0
  -12.4737   -1.7409    0.0000 H   0  0  0  0  0  0  0  0  0  0  0  0
  -13.4551   -3.8912    0.0000 H   0  0  0  0  0  0  0  0  0  0  0  0
  -10.9731   -6.2022    0.0000 H   0  0  0  0  0  0  0  0  0  0  0  0
  -11.4815   -8.9751    0.0000 H   0  0  0  0  0  0  0  0  0  0  0  0
  -10.8097   -7.1676    0.0000 H   0  0  0  0  0  0  0  0  0  0  0  0
  -13.2833   -9.3904    0.0000 H   0  0  0  0  0  0  0  0  0  0  0  0
  -15.8200   -7.1954    0.0000 H   0  0  0  0  0  0  0  0  0  0  0  0
  -18.4756   -8.1416    0.0000 H   0  0  0  0  0  0  0  0  0  0  0  0
  -16.7991   -7.1887    0.0000 H   0  0  0  0  0  0  0  0  0  0  0  0
  -18.0989  -11.4335    0.0000 H   0  0  0  0  0  0  0  0  0  0  0  0
  -16.8324  -11.0797    0.0000 H   0  0  0  0  0  0  0  0  0  0  0  0
  -21.5871  -11.2316    0.0000 H   0  0  0  0  0  0  0  0  0  0  0  0
  -19.9094  -12.7726    0.0000 H   0  0  0  0  0  0  0  0  0  0  0  0
  -18.5968   -9.9866    0.0000 H   0  0  0  0  0  0  0  0  0  0  0  0
  -16.0236  -12.1388    0.0000 H   0  0  0  0  0  0  0  0  0  0  0  0
  -15.9321  -12.9356    0.0000 H   0  0  0  0  0  0  0  0  0  0  0  0
  -18.3605  -16.0624    0.0000 H   0  0  0  0  0  0  0  0  0  0  0  0
  -19.8417  -15.0674    0.0000 H   0  0  0  0  0  0  0  0  0  0  0  0
  -19.6955  -13.7605    0.0000 H   0  0  0  0  0  0  0  0  0  0  0  0
  -16.2816  -16.3906    0.0000 H   0  0  0  0  0  0  0  0  0  0  0  0
  -17.8731  -15.5836    0.0000 H   0  0  0  0  0  0  0  0  0  0  0  0
  -14.2909  -16.2259    0.0000 H   0  0  0  0  0  0  0  0  0  0  0  0
  -13.6190  -14.4184    0.0000 H   0  0  0  0  0  0  0  0  0  0  0  0
  -15.1003  -13.4234    0.0000 H   0  0  0  0  0  0  0  0  0  0  0  0
  1  2  1  0
  2  3  1  0
  3  4  2  0
  4  5  1  0
  5  6  2  0
  6  7  1  0
  7  8  2  0
  7  9  1  0
  9 10  1  0
 10 11  1  0
 11 12  2  0
  9 13  1  0
 13 14  1  0
 14 15  2  0
 15 16  1  0
 16 17  2  0
 17 18  1  0
 16 19  1  0
 14 20  1  0
 20 21  1  0
 21 22  2  0
 22 23  1  0
 23 24  2  0
 24 25  1  0
 25 26  2  0
 25 27  1  0
  1 28  2  0
  1 29  1  0
 29 30  1  0
 30 31  1  0
 31 32  1  0
 32 33  2  0
 32 34  1  0
 34 35  1  0
 35 36  1  0
 36 37  1  0
 37 38  1  0
 37 39  2  0
 35 40  1  0
 40 41  2  0
 40 42  1  0
 42 43  1  0
 43 44  1  0
 44 45  1  0
 45 46  1  0
 46 47  2  0
 46 48  1  0
 43 49  1  0
 49 50  2  0
 49 51  1  0
 51 52  1  0
 52 53  1  0
 53 54  1  0
 54 55  1  0
 54 56  1  0
 52 57  1  0
 57 58  2  0
 57 59  1  0
 60 59  1  6
 60 61  1  0
 61 62  1  0
 62 63  1  0
 63 64  1  0
 64 65  1  0
 65 66  1  0
 66 67  1  0
 60 68  1  0
 60 69  1  0
 69 70  2  0
 69 71  1  0
 71 72  1  0
 72 73  1  0
 73 74  1  0
 74 75  1  0
 75 76  1  0
 76 77  1  0
 77 78  2  3
 77 79  1  0
 72 80  1  0
 80 81  2  0
 80 82  1  0
 82 83  1  0
 83 84  1  0
 84 85  1  0
 83 86  1  0
 86 87  2  0
 86 88  1  0
 88 89  1  0
 89 90  1  0
 90 91  1  0
 91 92  2  0
 92 93  1  0
 93 94  2  0
 94 95  1  0
 95 96  2  0
 89 97  1  0
 97 98  2  0
 97 99  1  0
 99100  1  0
100101  1  0
101102  1  0
102103  2  0
103104  1  0
104105  2  0
105106  1  0
106107  2  0
100108  1  0
108109  2  0
108110  1  0
110111  1  0
111112  1  0
112113  1  0
111114  1  0
114115  2  0
114116  1  0
116117  1  0
117118  1  0
118119  1  0
119120  1  0
119121  1  0
117122  1  0
122123  2  0
122124  1  0
124125  1  0
125126  1  0
126127  1  0
127128  1  0
128129  1  0
125130  1  0
125131  1  1
131132  2  0
131133  1  0
133134  1  0
134135  1  0
135136  1  0
136137  2  0
136138  1  0
134139  1  0
139140  2  0
139141  1  0
141142  1  0
142143  1  0
143144  1  0
144145  1  0
145146  1  0
145147  2  0
142148  1  0
148149  2  0
148150  1  0
150151  1  0
151152  1  0
152153  1  0
152154  1  0
154155  1  0
151156  1  0
156157  2  0
156158  1  0
  8  3  1  0
 96 91  1  0
107102  1  0
 11  6  1  0
 18 13  2  0
 67129  2  0
 22  9  1  0
 26 21  1  0
  2159  1  0
  4160  1  0
  5161  1  0
  8162  1  0
 15163  1  0
 17164  1  0
 18165  1  0
 19166  1  0
 23167  1  0
 24168  1  0
 26169  1  0
 27170  1  0
 29171  1  0
 30172  1  0
 30173  1  0
 31174  1  0
 31175  1  0
 34176  1  0
 35177  1  1
 36178  1  0
 36179  1  0
 38180  1  0
 38181  1  0
 42182  1  0
 43183  1  1
 44184  1  0
 44185  1  0
 45186  1  0
 45187  1  0
 51188  1  0
 52189  1  1
 53190  1  0
 53191  1  0
 54192  1  0
 55193  1  0
 55194  1  0
 55195  1  0
 56196  1  0
 56197  1  0
 56198  1  0
 59199  1  0
 61200  1  0
 61201  1  0
 62202  1  0
 62203  1  0
 63204  1  0
 63205  1  0
 64206  1  0
 64207  1  0
 65208  1  0
 65209  1  0
 66210  1  0
 66211  1  0
 67212  1  0
 68213  1  0
 68214  1  0
 68215  1  0
 71216  1  0
 72217  1  6
 73218  1  0
 73219  1  0
 74220  1  0
 74221  1  0
 75222  1  0
 75223  1  0
 76224  1  0
 78225  1  0
 78226  1  0
 79227  1  0
 79228  1  0
 82229  1  0
 83230  1  6
 84231  1  0
 84232  1  0
 85233  1  0
 88234  1  0
 89235  1  6
 90236  1  0
 90237  1  0
 92238  1  0
 93239  1  0
 94240  1  0
 95241  1  0
 96242  1  0
 99243  1  0
100244  1  6
101245  1  0
101246  1  0
103247  1  0
104248  1  0
105249  1  0
106250  1  0
107251  1  0
110252  1  0
111253  1  6
112254  1  0
112255  1  0
113256  1  0
116257  1  0
117258  1  6
118259  1  0
118260  1  0
119261  1  0
120262  1  0
120263  1  0
120264  1  0
121265  1  0
121266  1  0
121267  1  0
124268  1  0
126269  1  0
126270  1  0
127271  1  0
127272  1  0
128273  1  0
128274  1  0
129275  1  0
130276  1  0
130277  1  0
130278  1  0
133279  1  0
134280  1  1
135281  1  0
135282  1  0
141283  1  0
142284  1  6
143285  1  0
143286  1  0
144287  1  0
144288  1  0
146289  1  0
146290  1  0
150291  1  0
151292  1  1
152293  1  1
153294  1  0
153295  1  0
153296  1  0
154297  1  0
154298  1  0
155299  1  0
155300  1  0
155301  1  0
M  CHG  4  48  -1  78   1 138  -1 158  -1
M  END
