
     RDKit          2D

336344  0  0  0  0  0  0  0  0999 V2000
   15.4815   -4.2757    0.0000 C   0  0  0  0  0  0  0  0  0  0  0  0
   16.7464   -5.0820    0.0000 N   0  0  0  0  0  0  0  0  0  0  0  0
   16.6804   -6.5806    0.0000 C   0  0  0  0  0  0  0  0  0  0  0  0
   15.3497   -7.2728    0.0000 C   0  0  0  0  0  0  0  0  0  0  0  0
   15.2838   -8.7713    0.0000 C   0  0  0  0  0  0  0  0  0  0  0  0
   16.5486   -9.5777    0.0000 C   0  0  0  0  0  0  0  0  0  0  0  0
   17.8794   -8.8855    0.0000 C   0  0  0  0  0  0  0  0  0  0  0  0
   17.9453   -7.3869    0.0000 C   0  0  0  0  0  0  0  0  0  0  0  0
   18.9489   -9.9372    0.0000 C   0  0  0  0  0  0  0  0  0  0  0  0
   18.2791  -11.2794    0.0000 O   0  0  0  0  0  0  0  0  0  0  0  0
   16.7957  -11.0572    0.0000 C   0  0  0  0  0  0  0  0  0  0  0  0
   15.7440  -12.1267    0.0000 O   0  0  0  0  0  0  0  0  0  0  0  0
   19.9026  -11.0949    0.0000 C   0  0  0  0  0  0  0  0  0  0  0  0
   21.3821  -10.8479    0.0000 C   0  0  0  0  0  0  0  0  0  0  0  0
   22.3359  -12.0056    0.0000 C   0  0  0  0  0  0  0  0  0  0  0  0
   21.8101  -13.4104    0.0000 C   0  0  0  0  0  0  0  0  0  0  0  0
   20.3306  -13.6575    0.0000 C   0  0  0  0  0  0  0  0  0  0  0  0
   19.3768  -12.4998    0.0000 C   0  0  0  0  0  0  0  0  0  0  0  0
   22.7638  -14.5682    0.0000 O   0  0  0  0  0  0  0  0  0  0  0  0
   21.9079   -9.4430    0.0000 O   0  0  0  0  0  0  0  0  0  0  0  0
   20.9542   -8.2853    0.0000 C   0  0  0  0  0  0  0  0  0  0  0  0
   19.4747   -8.5324    0.0000 C   0  0  0  0  0  0  0  0  0  0  0  0
   19.2114   -7.2593    0.0000 C   0  0  0  0  0  0  0  0  0  0  0  0
   19.4918   -6.5101    0.0000 C   0  0  0  0  0  0  0  0  0  0  0  0
   20.2808   -6.3783    0.0000 C   0  0  0  0  0  0  0  0  0  0  0  0
   20.7895   -6.9957    0.0000 C   0  0  0  0  0  0  0  0  0  0  0  0
   21.0520   -4.3179    0.0000 O   0  0  0  0  0  0  0  0  0  0  0  0
   14.1508   -4.9678    0.0000 S   0  0  0  0  0  0  0  0  0  0  0  0
   15.5475   -2.7771    0.0000 N   0  0  0  0  0  0  0  0  0  0  0  0
   14.2826   -1.9707    0.0000 C   0  0  0  0  0  0  0  0  0  0  0  0
   14.3486   -0.4722    0.0000 C   0  0  0  0  0  0  0  0  0  0  0  0
   13.0837    0.3342    0.0000 C   0  0  0  0  0  0  0  0  0  0  0  0
   12.0895   -0.7890    0.0000 O   0  0  0  0  0  0  0  0  0  0  0  0
   13.1497    1.8327    0.0000 N   0  0  0  0  0  0  0  0  0  0  0  0
   11.8848    2.6391    0.0000 C   0  0  0  0  0  0  0  0  0  0  0  0
   11.6700    1.1546    0.0000 C   0  0  0  0  0  0  0  0  0  0  0  0
   11.0272   -0.2007    0.0000 C   0  0  0  0  0  0  0  0  0  0  0  0
   10.0135   -1.3063    0.0000 C   0  0  0  0  0  0  0  0  0  0  0  0
    8.7189   -2.0640    0.0000 C   0  0  0  0  0  0  0  0  0  0  0  0
   13.1401    3.4603    0.0000 C   0  0  0  0  0  0  0  0  0  0  0  0
   11.6525    4.1210    0.0000 C   0  0  0  0  0  0  0  0  0  0  0  0
   13.0832    4.5716    0.0000 O   0  0  0  0  0  0  0  0  0  0  0  0
   10.9937    5.4686    0.0000 N   0  0  0  0  0  0  0  0  0  0  0  0
    9.9670    6.5621    0.0000 C   0  0  0  0  0  0  0  0  0  0  0  0
   10.1075    8.0555    0.0000 C   0  0  0  0  0  0  0  0  0  0  0  0
   11.4711    8.6805    0.0000 C   0  0  0  0  0  0  0  0  0  0  0  0
   11.6117   10.1739    0.0000 C   0  0  0  0  0  0  0  0  0  0  0  0
   12.9752   10.7989    0.0000 N   0  0  0  0  0  0  0  0  0  0  0  0
   13.1158   12.2923    0.0000 C   0  0  0  0  0  0  0  0  0  0  0  0
   14.4794   12.9173    0.0000 N   0  0  0  0  0  0  0  0  0  0  0  0
   11.8927   13.1607    0.0000 N   0  0  0  0  0  0  0  0  0  0  0  0
    8.6635    7.3044    0.0000 C   0  0  0  0  0  0  0  0  0  0  0  0
    9.2033    8.7040    0.0000 O   0  0  0  0  0  0  0  0  0  0  0  0
    7.1992    7.6296    0.0000 N   0  0  0  0  0  0  0  0  0  0  0  0
    5.7041    7.5086    0.0000 C   0  0  0  0  0  0  0  0  0  0  0  0
    4.6241    8.5496    0.0000 C   0  0  0  0  0  0  0  0  0  0  0  0
    4.9857   10.0054    0.0000 C   0  0  0  0  0  0  0  0  0  0  0  0
    3.9057   11.0464    0.0000 C   0  0  0  0  0  0  0  0  0  0  0  0
    4.2673   12.5022    0.0000 N   0  0  0  0  0  0  0  0  0  0  0  0
    3.1873   13.5432    0.0000 C   0  0  0  0  0  0  0  0  0  0  0  0
    3.5488   14.9990    0.0000 N   0  0  0  0  0  0  0  0  0  0  0  0
    1.7458   13.1284    0.0000 N   0  0  0  0  0  0  0  0  0  0  0  0
    4.3110    6.9524    0.0000 C   0  0  0  0  0  0  0  0  0  0  0  0
    3.5534    8.2470    0.0000 O   0  0  0  0  0  0  0  0  0  0  0  0
    3.1438    6.0102    0.0000 N   0  0  0  0  0  0  0  0  0  0  0  0
    2.3062    4.7659    0.0000 C   0  0  0  0  0  0  0  0  0  0  0  0
    0.8190    4.5706    0.0000 C   0  0  0  0  0  0  0  0  0  0  0  0
   -0.0938    5.7610    0.0000 C   0  0  0  0  0  0  0  0  0  0  0  0
   -1.5810    5.5656    0.0000 C   0  0  0  0  0  0  0  0  0  0  0  0
   -2.4938    6.7560    0.0000 N   0  0  0  0  0  0  0  0  0  0  0  0
   -2.3201    4.2604    0.0000 O   0  0  0  0  0  0  0  0  0  0  0  0
    1.8725    3.3300    0.0000 C   0  0  0  0  0  0  0  0  0  0  0  0
    1.0996    3.7626    0.0000 O   0  0  0  0  0  0  0  0  0  0  0  0
    1.8814    1.8300    0.0000 N   0  0  0  0  0  0  0  0  0  0  0  0
    2.3320    0.3993    0.0000 C   0  0  0  0  0  0  0  0  0  0  0  0
    3.1843   -0.8351    0.0000 C   0  0  0  0  0  0  0  0  0  0  0  0
    4.3625   -1.7634    0.0000 C   0  0  0  0  0  0  0  0  0  0  0  0
    5.7620   -2.3031    0.0000 C   0  0  0  0  0  0  0  0  0  0  0  0
    7.2585   -2.4064    0.0000 C   0  0  0  0  0  0  0  0  0  0  0  0
    2.1840   -1.1877    0.0000 C   0  0  0  0  0  0  0  0  0  0  0  0
    2.4141   -2.5351    0.0000 C   0  0  0  0  0  0  0  0  0  0  0  0
    2.3850   -3.9017    0.0000 C   0  0  0  0  0  0  0  0  0  0  0  0
    2.0977   -5.2381    0.0000 C   0  0  0  0  0  0  0  0  0  0  0  0
    0.9887    1.2572    0.0000 C   0  0  0  0  0  0  0  0  0  0  0  0
    2.7466    2.5801    0.0000 O   0  0  0  0  0  0  0  0  0  0  0  0
    0.0667    2.2664    0.0000 N   0  0  0  0  0  0  0  0  0  0  0  0
   -1.0296    3.0828    0.0000 C   0  0  0  0  0  0  0  0  0  0  0  0
   -0.6824    5.1814    0.0000 C   0  0  0  0  0  0  0  0  0  0  0  0
   -1.9892    5.9178    0.0000 C   0  0  0  0  0  0  0  0  0  0  0  0
   -2.0049    7.4177    0.0000 C   0  0  0  0  0  0  0  0  0  0  0  0
   -3.3117    8.1541    0.0000 N   0  0  0  0  0  0  0  0  0  0  0  0
   -3.3273    9.6540    0.0000 C   0  0  0  0  0  0  0  0  0  0  0  0
   -4.4171   10.6847    0.0000 N   0  0  0  0  0  0  0  0  0  0  0  0
   -2.0362   10.4175    0.0000 N   0  0  0  0  0  0  0  0  0  0  0  0
   -2.2606    3.6770    0.0000 C   0  0  0  0  0  0  0  0  0  0  0  0
   -2.2185    5.8200    0.0000 O   0  0  0  0  0  0  0  0  0  0  0  0
   -3.5818    4.0275    0.0000 N   0  0  0  0  0  0  0  0  0  0  0  0
   -4.9455    4.1216    0.0000 C   0  0  0  0  0  0  0  0  0  0  0  0
   -5.7880    6.0747    0.0000 C   0  0  0  0  0  0  0  0  0  0  0  0
   -5.1146    7.4150    0.0000 C   0  0  0  0  0  0  0  0  0  0  0  0
   -5.9387    8.6684    0.0000 C   0  0  0  0  0  0  0  0  0  0  0  0
   -5.2653   10.0087    0.0000 N   0  0  0  0  0  0  0  0  0  0  0  0
   -6.0894   11.2621    0.0000 C   0  0  0  0  0  0  0  0  0  0  0  0
   -5.4160   12.6024    0.0000 N   0  0  0  0  0  0  0  0  0  0  0  0
   -7.5869   11.1751    0.0000 N   0  0  0  0  0  0  0  0  0  0  0  0
   -6.3024    3.9559    0.0000 C   0  0  0  0  0  0  0  0  0  0  0  0
   -6.9515    6.0542    0.0000 O   0  0  0  0  0  0  0  0  0  0  0  0
   -7.6033    3.5364    0.0000 N   0  0  0  0  0  0  0  0  0  0  0  0
   -8.8014    2.8783    0.0000 C   0  0  0  0  0  0  0  0  0  0  0  0
  -10.5661    4.0659    0.0000 C   0  0  0  0  0  0  0  0  0  0  0  0
  -10.7242    5.5575    0.0000 C   0  0  0  0  0  0  0  0  0  0  0  0
  -12.0951    6.1664    0.0000 C   0  0  0  0  0  0  0  0  0  0  0  0
  -12.2533    7.6580    0.0000 N   0  0  0  0  0  0  0  0  0  0  0  0
  -13.6242    8.2669    0.0000 C   0  0  0  0  0  0  0  0  0  0  0  0
  -13.7823    9.7585    0.0000 N   0  0  0  0  0  0  0  0  0  0  0  0
  -14.8369    7.3841    0.0000 N   0  0  0  0  0  0  0  0  0  0  0  0
   -9.8533    2.0054    0.0000 C   0  0  0  0  0  0  0  0  0  0  0  0
  -11.5338    3.4196    0.0000 O   0  0  0  0  0  0  0  0  0  0  0  0
  -10.7209    0.9491    0.0000 N   0  0  0  0  0  0  0  0  0  0  0  0
  -11.3730   -0.2522    0.0000 C   0  0  0  0  0  0  0  0  0  0  0  0
  -13.4996   -0.2072    0.0000 C   0  0  0  0  0  0  0  0  0  0  0  0
  -14.4391    0.9621    0.0000 C   0  0  0  0  0  0  0  0  0  0  0  0
  -14.0453    2.4095    0.0000 C   0  0  0  0  0  0  0  0  0  0  0  0
  -15.3002    3.2313    0.0000 N   0  0  0  0  0  0  0  0  0  0  0  0
  -16.4695    2.2918    0.0000 C   0  0  0  0  0  0  0  0  0  0  0  0
  -17.9501    2.5321    0.0000 C   0  0  0  0  0  0  0  0  0  0  0  0
  -18.8986    1.3700    0.0000 C   0  0  0  0  0  0  0  0  0  0  0  0
  -18.3664   -0.0324    0.0000 C   0  0  0  0  0  0  0  0  0  0  0  0
  -16.8858   -0.2727    0.0000 C   0  0  0  0  0  0  0  0  0  0  0  0
  -15.9374    0.8894    0.0000 C   0  0  0  0  0  0  0  0  0  0  0  0
  -11.7860   -1.5553    0.0000 C   0  0  0  0  0  0  0  0  0  0  0  0
  -13.9643   -1.2741    0.0000 O   0  0  0  0  0  0  0  0  0  0  0  0
  -11.9449   -2.9129    0.0000 N   0  0  0  0  0  0  0  0  0  0  0  0
  -11.8439   -4.2761    0.0000 C   0  0  0  0  0  0  0  0  0  0  0  0
  -13.6572   -5.3880    0.0000 C   0  0  0  0  0  0  0  0  0  0  0  0
  -15.0798   -4.9122    0.0000 C   0  0  0  0  0  0  0  0  0  0  0  0
  -16.2031   -5.9063    0.0000 C   0  0  0  0  0  0  0  0  0  0  0  0
  -17.6256   -5.4305    0.0000 N   0  0  0  0  0  0  0  0  0  0  0  0
  -18.7490   -6.4246    0.0000 C   0  0  0  0  0  0  0  0  0  0  0  0
  -20.1715   -5.9488    0.0000 N   0  0  0  0  0  0  0  0  0  0  0  0
  -18.4497   -7.8944    0.0000 N   0  0  0  0  0  0  0  0  0  0  0  0
  -11.4868   -5.5956    0.0000 C   0  0  0  0  0  0  0  0  0  0  0  0
  -13.4714   -6.5368    0.0000 O   0  0  0  0  0  0  0  0  0  0  0  0
  -10.8865   -6.8236    0.0000 N   0  0  0  0  0  0  0  0  0  0  0  0
  -10.0646   -7.9158    0.0000 C   0  0  0  0  0  0  0  0  0  0  0  0
  -10.9889   -9.8315    0.0000 C   0  0  0  0  0  0  0  0  0  0  0  0
  -12.4429  -10.2004    0.0000 C   0  0  0  0  0  0  0  0  0  0  0  0
  -12.8504  -11.6440    0.0000 C   0  0  0  0  0  0  0  0  0  0  0  0
  -14.3044  -12.0128    0.0000 N   0  0  0  0  0  0  0  0  0  0  0  0
  -14.7119  -13.4564    0.0000 C   0  0  0  0  0  0  0  0  0  0  0  0
  -16.1659  -13.8252    0.0000 N   0  0  0  0  0  0  0  0  0  0  0  0
  -13.6655  -14.5311    0.0000 N   0  0  0  0  0  0  0  0  0  0  0  0
   -9.0508   -8.8328    0.0000 C   0  0  0  0  0  0  0  0  0  0  0  0
  -10.2115  -10.6975    0.0000 O   0  0  0  0  0  0  0  0  0  0  0  0
   -7.8819   -9.5413    0.0000 N   0  0  0  0  0  0  0  0  0  0  0  0
   -6.5999  -10.0157    0.0000 C   0  0  0  0  0  0  0  0  0  0  0  0
   -5.2514  -10.2390    0.0000 C   0  0  0  0  0  0  0  0  0  0  0  0
   -3.8849  -10.2031    0.0000 C   0  0  0  0  0  0  0  0  0  0  0  0
   -2.5500   -9.9092    0.0000 C   0  0  0  0  0  0  0  0  0  0  0  0
   -1.2948   -9.3679    0.0000 C   0  0  0  0  0  0  0  0  0  0  0  0
   -0.1647   -8.5989    0.0000 C   0  0  0  0  0  0  0  0  0  0  0  0
    0.7995   -7.6300    0.0000 C   0  0  0  0  0  0  0  0  0  0  0  0
    1.5628   -6.4960    0.0000 C   0  0  0  0  0  0  0  0  0  0  0  0
   -7.8706  -11.7216    0.0000 C   0  0  0  0  0  0  0  0  0  0  0  0
   -6.3418  -12.1271    0.0000 C   0  0  0  0  0  0  0  0  0  0  0  0
   -7.2243  -13.3401    0.0000 O   0  0  0  0  0  0  0  0  0  0  0  0
   -5.0058  -12.8090    0.0000 O   0  0  0  0  0  0  0  0  0  0  0  0
   17.9828   -4.2328    0.0000 H   0  0  0  0  0  0  0  0  0  0  0  0
   14.0849   -6.4664    0.0000 H   0  0  0  0  0  0  0  0  0  0  0  0
   13.9530   -9.4635    0.0000 H   0  0  0  0  0  0  0  0  0  0  0  0
   19.0690   -6.3933    0.0000 H   0  0  0  0  0  0  0  0  0  0  0  0
   23.8154  -11.7585    0.0000 H   0  0  0  0  0  0  0  0  0  0  0  0
   19.8048  -15.0624    0.0000 H   0  0  0  0  0  0  0  0  0  0  0  0
   17.8973  -12.7469    0.0000 H   0  0  0  0  0  0  0  0  0  0  0  0
   22.2381  -15.9730    0.0000 H   0  0  0  0  0  0  0  0  0  0  0  0
   17.0414   -7.6217    0.0000 H   0  0  0  0  0  0  0  0  0  0  0  0
   18.2412   -4.7044    0.0000 H   0  0  0  0  0  0  0  0  0  0  0  0
   22.9594   -6.6334    0.0000 H   0  0  0  0  0  0  0  0  0  0  0  0
   22.5315   -4.0708    0.0000 H   0  0  0  0  0  0  0  0  0  0  0  0
   16.8782   -2.0849    0.0000 H   0  0  0  0  0  0  0  0  0  0  0  0
   13.7082   -3.3564    0.0000 H   0  0  0  0  0  0  0  0  0  0  0  0
   12.8183   -1.6456    0.0000 H   0  0  0  0  0  0  0  0  0  0  0  0
   15.8129   -0.7973    0.0000 H   0  0  0  0  0  0  0  0  0  0  0  0
   14.9230    0.9134    0.0000 H   0  0  0  0  0  0  0  0  0  0  0  0
   14.5549    2.3575    0.0000 H   0  0  0  0  0  0  0  0  0  0  0  0
   13.1691    1.2082    0.0000 H   0  0  0  0  0  0  0  0  0  0  0  0
   12.4944   -0.0986    0.0000 H   0  0  0  0  0  0  0  0  0  0  0  0
   12.3379   -0.9301    0.0000 H   0  0  0  0  0  0  0  0  0  0  0  0
   11.7817   -1.4972    0.0000 H   0  0  0  0  0  0  0  0  0  0  0  0
   11.3703   -1.9458    0.0000 H   0  0  0  0  0  0  0  0  0  0  0  0
   10.1716   -2.7979    0.0000 H   0  0  0  0  0  0  0  0  0  0  0  0
    9.2751   -3.4570    0.0000 H   0  0  0  0  0  0  0  0  0  0  0  0
   14.5513    2.9522    0.0000 H   0  0  0  0  0  0  0  0  0  0  0  0
   14.0387    4.6614    0.0000 H   0  0  0  0  0  0  0  0  0  0  0  0
   12.4084    4.7698    0.0000 H   0  0  0  0  0  0  0  0  0  0  0  0
   12.2281    6.3209    0.0000 H   0  0  0  0  0  0  0  0  0  0  0  0
   11.4347    6.8716    0.0000 H   0  0  0  0  0  0  0  0  0  0  0  0
    9.5547    9.4499    0.0000 H   0  0  0  0  0  0  0  0  0  0  0  0
    8.6276    8.3000    0.0000 H   0  0  0  0  0  0  0  0  0  0  0  0
   12.9662    8.8014    0.0000 H   0  0  0  0  0  0  0  0  0  0  0  0
   12.0239    7.2861    0.0000 H   0  0  0  0  0  0  0  0  0  0  0  0
   11.2329   11.6253    0.0000 H   0  0  0  0  0  0  0  0  0  0  0  0
   10.1129   10.2361    0.0000 H   0  0  0  0  0  0  0  0  0  0  0  0
   14.1983    9.9305    0.0000 H   0  0  0  0  0  0  0  0  0  0  0  0
   14.6199   14.4107    0.0000 H   0  0  0  0  0  0  0  0  0  0  0  0
   15.7024   12.0489    0.0000 H   0  0  0  0  0  0  0  0  0  0  0  0
   12.0333   14.6541    0.0000 H   0  0  0  0  0  0  0  0  0  0  0  0
   10.5291   12.5357    0.0000 H   0  0  0  0  0  0  0  0  0  0  0  0
    7.3025    9.1260    0.0000 H   0  0  0  0  0  0  0  0  0  0  0  0
    6.3772    8.8491    0.0000 H   0  0  0  0  0  0  0  0  0  0  0  0
    3.1893    8.9868    0.0000 H   0  0  0  0  0  0  0  0  0  0  0  0
    3.5103    7.5450    0.0000 H   0  0  0  0  0  0  0  0  0  0  0  0
    5.8233   11.2497    0.0000 H   0  0  0  0  0  0  0  0  0  0  0  0
    6.4205    9.5682    0.0000 H   0  0  0  0  0  0  0  0  0  0  0  0
    2.5348   11.6553    0.0000 H   0  0  0  0  0  0  0  0  0  0  0  0
    2.9226    9.9135    0.0000 H   0  0  0  0  0  0  0  0  0  0  0  0
    5.7088   12.9170    0.0000 H   0  0  0  0  0  0  0  0  0  0  0  0
    2.4689   16.0400    0.0000 H   0  0  0  0  0  0  0  0  0  0  0  0
    4.9903   15.4137    0.0000 H   0  0  0  0  0  0  0  0  0  0  0  0
    0.6658   14.1694    0.0000 H   0  0  0  0  0  0  0  0  0  0  0  0
    1.3842   11.6726    0.0000 H   0  0  0  0  0  0  0  0  0  0  0  0
    2.0383    7.0240    0.0000 H   0  0  0  0  0  0  0  0  0  0  0  0
    1.6778    6.1280    0.0000 H   0  0  0  0  0  0  0  0  0  0  0  0
   -0.6397    4.2210    0.0000 H   0  0  0  0  0  0  0  0  0  0  0  0
    0.7268    3.0735    0.0000 H   0  0  0  0  0  0  0  0  0  0  0  0
   -0.1848    7.2582    0.0000 H   0  0  0  0  0  0  0  0  0  0  0  0
    1.1427    6.6102    0.0000 H   0  0  0  0  0  0  0  0  0  0  0  0
   -3.9841    6.9264    0.0000 H   0  0  0  0  0  0  0  0  0  0  0  0
   -2.4541    8.2555    0.0000 H   0  0  0  0  0  0  0  0  0  0  0  0
    0.3995    1.5977    0.0000 H   0  0  0  0  0  0  0  0  0  0  0  0
    3.0029   -2.3241    0.0000 H   0  0  0  0  0  0  0  0  0  0  0  0
    1.7086   -1.1043    0.0000 H   0  0  0  0  0  0  0  0  0  0  0  0
    4.6281   -3.2397    0.0000 H   0  0  0  0  0  0  0  0  0  0  0  0
    3.3683   -2.8865    0.0000 H   0  0  0  0  0  0  0  0  0  0  0  0
    6.2834   -3.7096    0.0000 H   0  0  0  0  0  0  0  0  0  0  0  0
    5.1431   -3.6695    0.0000 H   0  0  0  0  0  0  0  0  0  0  0  0
    7.3794   -3.9015    0.0000 H   0  0  0  0  0  0  0  0  0  0  0  0
    3.8834    0.0915    0.0000 H   0  0  0  0  0  0  0  0  0  0  0  0
    4.2334   -1.6072    0.0000 H   0  0  0  0  0  0  0  0  0  0  0  0
    4.5607   -2.0940    0.0000 H   0  0  0  0  0  0  0  0  0  0  0  0
    4.3471   -3.3349    0.0000 H   0  0  0  0  0  0  0  0  0  0  0  0
    4.5763   -3.8748    0.0000 H   0  0  0  0  0  0  0  0  0  0  0  0
    4.2542   -4.9167    0.0000 H   0  0  0  0  0  0  0  0  0  0  0  0
    4.1949   -5.9028    0.0000 H   0  0  0  0  0  0  0  0  0  0  0  0
    1.3994    4.0123    0.0000 H   0  0  0  0  0  0  0  0  0  0  0  0
    0.4659    4.6648    0.0000 H   0  0  0  0  0  0  0  0  0  0  0  0
   -0.1841    6.5962    0.0000 H   0  0  0  0  0  0  0  0  0  0  0  0
    0.7565    4.7578    0.0000 H   0  0  0  0  0  0  0  0  0  0  0  0
   -3.4691    6.1628    0.0000 H   0  0  0  0  0  0  0  0  0  0  0  0
   -2.9615    4.7756    0.0000 H   0  0  0  0  0  0  0  0  0  0  0  0
   -1.3378    8.7612    0.0000 H   0  0  0  0  0  0  0  0  0  0  0  0
   -0.5097    7.5380    0.0000 H   0  0  0  0  0  0  0  0  0  0  0  0
   -4.7492    7.7257    0.0000 H   0  0  0  0  0  0  0  0  0  0  0  0
   -4.6498   11.8903    0.0000 H   0  0  0  0  0  0  0  0  0  0  0  0
   -6.1364   10.0232    0.0000 H   0  0  0  0  0  0  0  0  0  0  0  0
   -2.0518   11.9174    0.0000 H   0  0  0  0  0  0  0  0  0  0  0  0
   -0.7294    9.6811    0.0000 H   0  0  0  0  0  0  0  0  0  0  0  0
   -3.4047    6.2168    0.0000 H   0  0  0  0  0  0  0  0  0  0  0  0
   -4.3704    6.1989    0.0000 H   0  0  0  0  0  0  0  0  0  0  0  0
   -6.9911    6.9706    0.0000 H   0  0  0  0  0  0  0  0  0  0  0  0
   -7.0958    5.3401    0.0000 H   0  0  0  0  0  0  0  0  0  0  0  0
   -4.3049    8.6777    0.0000 H   0  0  0  0  0  0  0  0  0  0  0  0
   -3.9116    6.5191    0.0000 H   0  0  0  0  0  0  0  0  0  0  0  0
   -7.1418    9.5643    0.0000 H   0  0  0  0  0  0  0  0  0  0  0  0
   -7.1472    7.7799    0.0000 H   0  0  0  0  0  0  0  0  0  0  0  0
   -3.8334   10.4555    0.0000 H   0  0  0  0  0  0  0  0  0  0  0  0
   -6.2401   13.8558    0.0000 H   0  0  0  0  0  0  0  0  0  0  0  0
   -3.9186   12.6894    0.0000 H   0  0  0  0  0  0  0  0  0  0  0  0
   -8.4110   12.4284    0.0000 H   0  0  0  0  0  0  0  0  0  0  0  0
   -8.2603    9.8347    0.0000 H   0  0  0  0  0  0  0  0  0  0  0  0
   -8.3021    5.6188    0.0000 H   0  0  0  0  0  0  0  0  0  0  0  0
   -9.0753    4.9522    0.0000 H   0  0  0  0  0  0  0  0  0  0  0  0
  -12.0625    4.1692    0.0000 H   0  0  0  0  0  0  0  0  0  0  0  0
  -11.2691    2.7409    0.0000 H   0  0  0  0  0  0  0  0  0  0  0  0
  -10.3627    7.0133    0.0000 H   0  0  0  0  0  0  0  0  0  0  0  0
   -9.2473    5.8194    0.0000 H   0  0  0  0  0  0  0  0  0  0  0  0
  -13.5916    6.2696    0.0000 H   0  0  0  0  0  0  0  0  0  0  0  0
  -12.6314    4.7655    0.0000 H   0  0  0  0  0  0  0  0  0  0  0  0
  -11.0406    8.5408    0.0000 H   0  0  0  0  0  0  0  0  0  0  0  0
  -15.1532   10.3673    0.0000 H   0  0  0  0  0  0  0  0  0  0  0  0
  -12.5696   10.6413    0.0000 H   0  0  0  0  0  0  0  0  0  0  0  0
  -16.2078    7.9929    0.0000 H   0  0  0  0  0  0  0  0  0  0  0  0
  -14.6787    5.8924    0.0000 H   0  0  0  0  0  0  0  0  0  0  0  0
  -12.4346    2.3231    0.0000 H   0  0  0  0  0  0  0  0  0  0  0  0
  -12.8806    1.2483    0.0000 H   0  0  0  0  0  0  0  0  0  0  0  0
  -14.8926   -0.7638    0.0000 H   0  0  0  0  0  0  0  0  0  0  0  0
  -13.3747   -1.7020    0.0000 H   0  0  0  0  0  0  0  0  0  0  0  0
  -12.7182    3.1086    0.0000 H   0  0  0  0  0  0  0  0  0  0  0  0
  -15.3729    4.7295    0.0000 H   0  0  0  0  0  0  0  0  0  0  0  0
  -18.4823    3.9346    0.0000 H   0  0  0  0  0  0  0  0  0  0  0  0
  -20.3792    1.6104    0.0000 H   0  0  0  0  0  0  0  0  0  0  0  0
  -19.3149   -1.1945    0.0000 H   0  0  0  0  0  0  0  0  0  0  0  0
  -16.3536   -1.6751    0.0000 H   0  0  0  0  0  0  0  0  0  0  0  0
  -14.1293   -2.6835    0.0000 H   0  0  0  0  0  0  0  0  0  0  0  0
  -13.8442   -3.6637    0.0000 H   0  0  0  0  0  0  0  0  0  0  0  0
  -14.3728   -6.7063    0.0000 H   0  0  0  0  0  0  0  0  0  0  0  0
  -12.7440   -6.5780    0.0000 H   0  0  0  0  0  0  0  0  0  0  0  0
  -16.2538   -3.9786    0.0000 H   0  0  0  0  0  0  0  0  0  0  0  0
  -14.7045   -3.4599    0.0000 H   0  0  0  0  0  0  0  0  0  0  0  0
  -16.9187   -7.2246    0.0000 H   0  0  0  0  0  0  0  0  0  0  0  0
  -15.1516   -6.9761    0.0000 H   0  0  0  0  0  0  0  0  0  0  0  0
  -17.9249   -3.9607    0.0000 H   0  0  0  0  0  0  0  0  0  0  0  0
  -21.2948   -6.9429    0.0000 H   0  0  0  0  0  0  0  0  0  0  0  0
  -20.4707   -4.4789    0.0000 H   0  0  0  0  0  0  0  0  0  0  0  0
  -19.5730   -8.8885    0.0000 H   0  0  0  0  0  0  0  0  0  0  0  0
  -17.0272   -8.3702    0.0000 H   0  0  0  0  0  0  0  0  0  0  0  0
  -12.8482   -7.8116    0.0000 H   0  0  0  0  0  0  0  0  0  0  0  0
  -12.0784   -8.4821    0.0000 H   0  0  0  0  0  0  0  0  0  0  0  0
  -10.8782  -11.3275    0.0000 H   0  0  0  0  0  0  0  0  0  0  0  0
   -9.5773  -10.3389    0.0000 H   0  0  0  0  0  0  0  0  0  0  0  0
  -13.9353  -10.0497    0.0000 H   0  0  0  0  0  0  0  0  0  0  0  0
  -12.9123   -8.7757    0.0000 H   0  0  0  0  0  0  0  0  0  0  0  0
  -12.7397  -13.1399    0.0000 H   0  0  0  0  0  0  0  0  0  0  0  0
  -11.3875  -11.9754    0.0000 H   0  0  0  0  0  0  0  0  0  0  0  0
  -15.3508  -10.9381    0.0000 H   0  0  0  0  0  0  0  0  0  0  0  0
  -16.5734  -15.2688    0.0000 H   0  0  0  0  0  0  0  0  0  0  0  0
  -17.2123  -12.7505    0.0000 H   0  0  0  0  0  0  0  0  0  0  0  0
  -14.0731  -15.9747    0.0000 H   0  0  0  0  0  0  0  0  0  0  0  0
  -12.2116  -14.1623    0.0000 H   0  0  0  0  0  0  0  0  0  0  0  0
   -8.9980  -11.4330    0.0000 H   0  0  0  0  0  0  0  0  0  0  0  0
   -4.5983  -12.2634    0.0000 H   0  0  0  0  0  0  0  0  0  0  0  0
   -5.8557  -12.3305    0.0000 H   0  0  0  0  0  0  0  0  0  0  0  0
   -3.0101  -12.1731    0.0000 H   0  0  0  0  0  0  0  0  0  0  0  0
   -4.0825  -12.3711    0.0000 H   0  0  0  0  0  0  0  0  0  0  0  0
   -1.3182  -11.6780    0.0000 H   0  0  0  0  0  0  0  0  0  0  0  0
   -2.5166  -12.0644    0.0000 H   0  0  0  0  0  0  0  0  0  0  0  0
    0.2495  -10.8717    0.0000 H   0  0  0  0  0  0  0  0  0  0  0  0
   -0.8541  -11.4779    0.0000 H   0  0  0  0  0  0  0  0  0  0  0  0
    1.6363   -9.7832    0.0000 H   0  0  0  0  0  0  0  0  0  0  0  0
    0.6674  -10.5874    0.0000 H   0  0  0  0  0  0  0  0  0  0  0  0
    2.8272   -8.2723    0.0000 H   0  0  0  0  0  0  0  0  0  0  0  0
    1.9928   -9.4250    0.0000 H   0  0  0  0  0  0  0  0  0  0  0  0
    3.4963   -7.5455    0.0000 H   0  0  0  0  0  0  0  0  0  0  0  0
   -7.7054  -13.2124    0.0000 H   0  0  0  0  0  0  0  0  0  0  0  0
   -9.1653  -12.4790    0.0000 H   0  0  0  0  0  0  0  0  0  0  0  0
   -8.9735  -10.7049    0.0000 H   0  0  0  0  0  0  0  0  0  0  0  0
  1  2  1  0
  2  3  1  0
  3  4  2  0
  4  5  1  0
  5  6  2  0
  6  7  1  0
  7  8  2  0
  7  9  1  0
  9 10  1  0
 10 11  1  0
 11 12  2  0
  9 13  1  0
 13 14  1  0
 14 15  2  0
 15 16  1  0
 16 17  2  0
 17 18  1  0
 16 19  1  0
 14 20  1  0
 20 21  1  0
 21 22  2  0
 22 23  1  0
 23 24  2  0
 24 25  1  0
 25 26  2  0
 25 27  1  0
  1 28  2  0
  1 29  1  0
 29 30  1  0
 30 31  1  0
 31 32  1  0
 32 33  2  0
 32 34  1  0
 35 34  1  1
 35 36  1  0
 36 37  1  0
 37 38  1  0
 38 39  1  0
 35 40  1  0
 35 41  1  0
 41 42  2  0
 41 43  1  0
 43 44  1  0
 44 45  1  0
 45 46  1  0
 46 47  1  0
 47 48  1  0
 48 49  1  0
 49 50  2  3
 49 51  1  0
 44 52  1  0
 52 53  2  0
 52 54  1  0
 54 55  1  0
 55 56  1  0
 56 57  1  0
 57 58  1  0
 58 59  1  0
 59 60  1  0
 60 61  2  3
 60 62  1  0
 55 63  1  0
 63 64  2  0
 63 65  1  0
 65 66  1  0
 66 67  1  0
 67 68  1  0
 68 69  1  0
 69 70  1  0
 69 71  2  0
 66 72  1  0
 72 73  2  0
 72 74  1  0
 74 75  1  0
 75 76  1  0
 76 77  1  0
 77 78  1  0
 78 79  1  0
 75 80  1  0
 80 81  1  0
 81 82  1  0
 82 83  1  0
 75 84  1  0
 84 85  2  0
 84 86  1  0
 86 87  1  0
 87 88  1  0
 88 89  1  0
 89 90  1  0
 90 91  1  0
 91 92  1  0
 92 93  2  3
 92 94  1  0
 87 95  1  0
 95 96  2  0
 95 97  1  0
 97 98  1  0
 98 99  1  0
 99100  1  0
100101  1  0
101102  1  0
102103  1  0
103104  2  3
103105  1  0
 98106  1  0
106107  2  0
106108  1  0
108109  1  0
109110  1  0
110111  1  0
111112  1  0
112113  1  0
113114  1  0
114115  2  3
114116  1  0
109117  1  0
117118  2  0
117119  1  0
119120  1  0
120121  1  0
121122  1  0
122123  2  0
123124  1  0
124125  1  0
125126  2  0
126127  1  0
127128  2  0
128129  1  0
129130  2  0
120131  1  0
131132  2  0
131133  1  0
133134  1  0
134135  1  0
135136  1  0
136137  1  0
137138  1  0
138139  1  0
139140  2  3
139141  1  0
134142  1  0
142143  2  0
142144  1  0
144145  1  0
145146  1  0
146147  1  0
147148  1  0
148149  1  0
149150  1  0
150151  2  3
150152  1  0
145153  1  0
153154  2  0
153155  1  0
155156  1  0
156157  1  0
157158  1  0
158159  1  0
159160  1  0
160161  1  0
161162  1  0
162163  1  0
156164  1  0
156165  1  1
165166  2  0
165167  1  0
  8  3  1  0
130122  1  0
 11  6  1  0
130125  1  0
 18 13  2  0
 39 79  2  0
 22  9  1  0
 83163  2  0
 26 21  1  0
  2168  1  0
  4169  1  0
  5170  1  0
  8171  1  0
 15172  1  0
 17173  1  0
 18174  1  0
 19175  1  0
 23176  1  0
 24177  1  0
 26178  1  0
 27179  1  0
 29180  1  0
 30181  1  0
 30182  1  0
 31183  1  0
 31184  1  0
 34185  1  0
 36186  1  0
 36187  1  0
 37188  1  0
 37189  1  0
 38190  1  0
 38191  1  0
 39192  1  0
 40193  1  0
 40194  1  0
 40195  1  0
 43196  1  0
 44197  1  6
 45198  1  0
 45199  1  0
 46200  1  0
 46201  1  0
 47202  1  0
 47203  1  0
 48204  1  0
 50205  1  0
 50206  1  0
 51207  1  0
 51208  1  0
 54209  1  0
 55210  1  6
 56211  1  0
 56212  1  0
 57213  1  0
 57214  1  0
 58215  1  0
 58216  1  0
 59217  1  0
 61218  1  0
 61219  1  0
 62220  1  0
 62221  1  0
 65222  1  0
 66223  1  6
 67224  1  0
 67225  1  0
 68226  1  0
 68227  1  0
 70228  1  0
 70229  1  0
 74230  1  0
 76231  1  0
 76232  1  0
 77233  1  0
 77234  1  0
 78235  1  0
 78236  1  0
 79237  1  0
 80238  1  0
 80239  1  0
 81240  1  0
 81241  1  0
 82242  1  0
 82243  1  0
 83244  1  0
 86245  1  0
 87246  1  6
 88247  1  0
 88248  1  0
 89249  1  0
 89250  1  0
 90251  1  0
 90252  1  0
 91253  1  0
 93254  1  0
 93255  1  0
 94256  1  0
 94257  1  0
 97258  1  0
 98259  1  6
 99260  1  0
 99261  1  0
100262  1  0
100263  1  0
101264  1  0
101265  1  0
102266  1  0
104267  1  0
104268  1  0
105269  1  0
105270  1  0
108271  1  0
109272  1  6
110273  1  0
110274  1  0
111275  1  0
111276  1  0
112277  1  0
112278  1  0
113279  1  0
115280  1  0
115281  1  0
116282  1  0
116283  1  0
119284  1  0
120285  1  6
121286  1  0
121287  1  0
123288  1  0
124289  1  0
126290  1  0
127291  1  0
128292  1  0
129293  1  0
133294  1  0
134295  1  6
135296  1  0
135297  1  0
136298  1  0
136299  1  0
137300  1  0
137301  1  0
138302  1  0
140303  1  0
140304  1  0
141305  1  0
141306  1  0
144307  1  0
145308  1  6
146309  1  0
146310  1  0
147311  1  0
147312  1  0
148313  1  0
148314  1  0
149315  1  0
151316  1  0
151317  1  0
152318  1  0
152319  1  0
155320  1  0
157321  1  0
157322  1  0
158323  1  0
158324  1  0
159325  1  0
159326  1  0
160327  1  0
160328  1  0
161329  1  0
161330  1  0
162331  1  0
162332  1  0
163333  1  0
164334  1  0
164335  1  0
164336  1  0
M  CHG  8  50   1  61   1  93   1 104   1 115   1 140   1 151   1 167  -1
M  END
